2024-05-30T10:51:58,733  INFO Gbl:64 JVM: 19.0.1; Oracle Corporation; mixed mode, sharing; 64-bit
2024-05-30T10:51:58,734  INFO Gbl:68 OS: Windows 11; 10.0; amd64
2024-05-30T10:51:58,734  INFO Gbl:71 CPU cores: 16
2024-05-30T10:51:58,737  INFO Gbl:72 max. Memory: 1842.0MB (1931476992B)
2024-05-30T10:51:58,739  INFO Gbl:110 MATSim-Build: ra76d70e12c1ca93f702007bdf2cc365001d5f50e (2023-04-12 08:36:22)
2024-05-30T10:51:58,745  INFO ControlerListenerManagerImpl:108 calling notifyStartup on org.matsim.core.controler.ControlerDefaultsModule$1
2024-05-30T10:51:58,751  INFO MemoryObserver:42 used RAM: 495 MB  free: 491 MB  total: 987 MB
2024-05-30T10:51:58,880  INFO ControlerListenerManagerImpl:108 calling notifyStartup on org.matsim.guice.DependencyGraphControlerListener
2024-05-30T10:51:59,045  INFO ControlerListenerManagerImpl:108 calling notifyStartup on org.matsim.counts.CountsControlerListener
2024-05-30T10:51:59,045  INFO ControlerListenerManagerImpl:108 calling notifyStartup on org.matsim.analysis.ModeStatsControlerListener
2024-05-30T10:51:59,045  INFO ControlerListenerManagerImpl:108 calling notifyStartup on org.matsim.analysis.ScoreStatsControlerListener
2024-05-30T10:51:59,045  INFO ControlerListenerManagerImpl:111 all ControlerStartupListeners called.
2024-05-30T10:51:59,046  INFO ControlerUtils:80 config dump before iterations start
2024-05-30T10:51:59,076  INFO ControlerUtils:84 

<?xml version="1.0" encoding="UTF-8"?>
<!DOCTYPE config SYSTEM "http://www.matsim.org/files/dtd/config_v2.dtd">
<config>
	<module name="JDEQSim" >
		<param name="carSize" value="7.5" />
		<param name="endTime" value="undefined" />
		<param name="flowCapacityFactor" value="1.0" />
		<param name="gapTravelSpeed" value="15.0" />
		<param name="minimumInFlowCapacity" value="1800.0" />
		<param name="squeezeTime" value="1800.0" />
		<param name="storageCapacityFactor" value="1.0" />
	</module>
	<module name="ReplanningAnnealer" >
		<!-- Activate the scaling of replanning modules using an annealing approach rather than fixed rates. -->
		<param name="activateAnnealingModule" value="false" />
	</module>
	<module name="TimeAllocationMutator" >
		<!-- Default:true; Defines whether time mutation changes an activity's duration. -->
		<param name="mutationAffectsDuration" value="true" />
		<!-- Default:1800.0; Defines how many seconds a time mutation can maximally shift a time. -->
		<param name="mutationRange" value="1800.0" />
	</module>
	<module name="changeMode" >
		<!-- Defines whether car availability is considered be considered or not. An agent has no car only if it has no license, or never access to a car. Default: true -->
		<param name="ignoreCarAvailability" value="true" />
		<!-- Defines the mode switch behavior. Possible values [fromAllModesToSpecifiedModes, fromSpecifiedModesToSpecifiedModes] Default: fromSpecifiedModesToSpecifiedModes. -->
		<param name="modeSwitchBehavior" value="fromSpecifiedModesToSpecifiedModes" />
		<!-- Defines all the modes available, including chain-based modes, seperated by commas -->
		<param name="modes" value="car,pt" />
	</module>
	<module name="controler" >
		<!-- Defines what should be done with the ITERS directory when a simulation finished successfully -->
		<param name="cleanItersAtEnd" value="keep" />
		<!-- Compression algorithm to use when writing out data to files. Possible values: [none, gzip, lz4, zst] -->
		<param name="compressionType" value="gzip" />
		<!-- Sets whether graphs showing some analyses should automatically be generated during the simulation. The generation of graphs usually takes a small amount of time that does not have any weight in big simulations, but add a significant overhead in smaller runs or in test cases where the graphical output is not even requested. -->
		<param name="createGraphs" value="true" />
		<!-- Defines when the scoring functions for the population are created. Default=IterationStarts. Possible values: [IterationStarts, BeforeMobsim] -->
		<param name="createScoringFunctionType" value="IterationStarts" />
		<!-- true if at the end of a run, plans, network, config etc should be dumped to a file -->
		<param name="dumpDataAtEnd" value="true" />
		<!-- Default=false. If enabled, the router takes travel times needed for turning moves into account. Cannot be used if the (Fast)AStarLandmarks routing or TravelTimeCalculator.separateModes is enabled. -->
		<param name="enableLinkToLinkRouting" value="false" />
		<!-- Default=xml; Specifies the file format for writing events. Currently supported: [xml, pb, json]
		Multiple values can be specified separated by commas (','). -->
		<param name="eventsFileFormat" value="xml" />
		<!-- Default=0. First Iteration of a simulation. -->
		<param name="firstIteration" value="0" />
		<!-- Default=1000. Last Iteration of a simulation. -->
		<param name="lastIteration" value="5" />
		<!-- Defines which mobility simulation will be used. Currently supported: qsim JDEQSim hermes 
		Depending on the chosen mobsim, you'll have to add additional config modules to configure the corresponding mobsim.
		For 'qsim', add a module 'qsim' to the config. -->
		<param name="mobsim" value="qsim" />
		<param name="outputDirectory" value="./output" />
		<!-- Possible values: failIfDirectoryExists,overwriteExistingFiles,deleteDirectoryIfExists -->
		<param name="overwriteFiles" value="deleteDirectoryIfExists" />
		<!-- The type of routing (least cost path) algorithm used, may have the values: [Dijkstra, AStarLandmarks, FastDijkstra, FastAStarLandmarks, SpeedyALT] -->
		<param name="routingAlgorithmType" value="AStarLandmarks" />
		<!-- An identifier for the current run which is used as prefix for output files and mentioned in output xml files etc. -->
		<param name="runId" value="null" />
		<!-- Comma-separated list of visualizer output file formats. `transims' and `otfvis'. -->
		<param name="snapshotFormat" value="" />
		<!-- iterationNumber % writeEventsInterval == 0 defines in which iterations events are written to a file. `0' disables events writing completely. -->
		<param name="writeEventsInterval" value="5" />
		<!-- iterationNumber % writePlansInterval == 0 defines (hopefully) in which iterations plans are written to a file. `0' disables plans writing completely.  Some plans in early iterations are always written -->
		<param name="writePlansInterval" value="5" />
		<!-- iterationNumber % writeSnapshotsInterval == 0 defines in which iterations snapshots are written to a file. `0' disables snapshots writing completely -->
		<param name="writeSnapshotsInterval" value="1" />
		<!-- iterationNumber % writeEventsInterval == 0 defines in which iterations trips CSV are written to a file. `0' disables trips writing completely. -->
		<param name="writeTripsInterval" value="50" />
	</module>
	<module name="counts" >
		<!-- Transport modes that will be respected for the counts comparison. 'car' is default, which includes also bussed from the pt simulation module. Use this parameter in combination with 'filterModes' = true! -->
		<param name="analyzedModes" value="car" />
		<!-- Specifies over how many iterations the link volumes should be averaged that are used for the counts comparison. Use 1 or 0 to only use the link volumes of a single iteration. This values cannot be larger than the value specified for writeCountsInterval -->
		<param name="averageCountsOverIterations" value="5" />
		<!-- factor by which to re-scale the simulated values.  necessary when simulation runs with something different from 100%.  needs to be adapted manually -->
		<param name="countsScaleFactor" value="1.0" />
		<!-- distance to distanceFilterCenterNode to include counting stations. The unit of distance is the Euclidean distance implied by the coordinate system -->
		<param name="distanceFilter" value="null" />
		<!-- node id for center node of distance filter -->
		<param name="distanceFilterCenterNode" value="null" />
		<!-- If true, link counts from legs performed on modes not included in the 'analyzedModes' parameter are ignored. -->
		<param name="filterModes" value="false" />
		<!-- The Coordinates Reference System in which the coordinates are expressed in the input file. At import, the coordinates will be converted to the coordinate system defined in "global", and willbe converted back at export. If not specified, no conversion happens. -->
		<param name="inputCRS" value="null" />
		<!-- input file name to counts package -->
		<param name="inputCountsFile" value="null" />
		<!-- possible values: `html', `txt', `all' -->
		<param name="outputformat" value="txt" />
		<!-- Specifies how often the counts comparison should be calculated and written. -->
		<param name="writeCountsInterval" value="10" />
	</module>
	<module name="facilities" >
		<!-- This defines how facilities should be created. Possible values: none fromFile setInScenario onePerActivityLinkInPlansFile onePerActivityLinkInPlansFileExceptWhenCoordinatesAreGiven onePerActivityLocationInPlansFile  -->
		<param name="facilitiesSource" value="none" />
		<!-- A prefix to be used for auto-generated IDs. -->
		<param name="idPrefix" value="f_auto_" />
		<!-- The Coordinates Reference System in which the coordinates are expressed in the input file. At import, the coordinates will be converted to the coordinate system defined in "global", and willbe converted back at export. If not specified, no conversion happens. -->
		<param name="inputCRS" value="null" />
		<param name="inputFacilitiesFile" value="null" />
		<param name="inputFacilityAttributesFile" value="null" />
		<param name="insistingOnUsingDeprecatedFacilitiesAttributeFile" value="false" />
	</module>
	<module name="global" >
		<param name="coordinateSystem" value="EPSG:4756" />
		<param name="defaultDelimiter" value=";" />
		<param name="insistingOnDeprecatedConfigVersion" value="true" />
		<!-- "global" number of threads.  This number is used, e.g., for replanning, but NOT in QSim.  This can typically be set to as many cores as you have available, or possibly even slightly more. -->
		<param name="numberOfThreads" value="2" />
		<param name="randomSeed" value="4711" />
	</module>
	<module name="hermes" >
		<!-- Simulation End Time -->
		<param name="endTime" value="30:00:00" />
		<param name="flowCapacityFactor" value="1.0" />
		<param name="mainMode" value="car" />
		<param name="storageCapacityFactor" value="1.0" />
		<!-- time in seconds.  Time after which the frontmost vehicle on a link is called `stuck' if it does not move. Set to Integer.MAX_VALUE to disable this behavior -->
		<param name="stuckTime" value="10" />
		<!-- treats PT as deterministic. PT vehicles will run with a steady speed. Should be used with separate network layers for PT and other network modes. -->
		<param name="useDeterministicPt" value="false" />
	</module>
	<module name="households" >
		<param name="inputFile" value="null" />
		<param name="inputHouseholdAttributesFile" value="null" />
		<param name="insistingOnUsingDeprecatedHouseholdsAttributeFile" value="false" />
	</module>
	<module name="linkStats" >
		<!-- Specifies over how many iterations the link volumes should be averaged that are used for the link statistics. Use 1 or 0 to only use the link volumes of a single iteration. This values cannot be larger than the value specified for writeLinkStatsInterval -->
		<param name="averageLinkStatsOverIterations" value="5" />
		<!-- Specifies how often the link stats should be calculated and written. Use 0 to disable the generation of link stats. -->
		<param name="writeLinkStatsInterval" value="50" />
	</module>
	<module name="network" >
		<!-- The Coordinates Reference System in which the coordinates are expressed in the input file. At import, the coordinates will be converted to the coordinate system defined in "global", and willbe converted back at export. If not specified, no conversion happens. -->
		<param name="inputCRS" value="null" />
		<param name="inputChangeEventsFile" value="null" />
		<param name="inputNetworkFile" value="saigon.xml" />
		<param name="laneDefinitionsFile" value="null" />
		<param name="timeVariantNetwork" value="false" />
	</module>
	<module name="parallelEventHandling" >
		<!-- Estimated number of events during mobsim run. An optional optimization hint for the framework. -->
		<param name="estimatedNumberOfEvents" value="null" />
		<!-- Size of the events Queue. Increase for very large scenarios -->
		<param name="eventsQueueSize" value="131072" />
		<!-- Number of threads for parallel events handler. _null_ means the framework decides by itself. 0 is currently not possible. -->
		<param name="numberOfThreads" value="null" />
		<!-- If enabled, each event handler is assigned to its own thread. Note that enabling this feature disabled the numberOfThreads option! This feature is still experimental! -->
		<param name="oneThreadPerHandler" value="false" />
		<!-- If enabled, it is ensured that all events that are created during a time step of the mobility simulation are processed before the next time step is simulated. E.g. neccessary when within-day replanning is used. -->
		<param name="synchronizeOnSimSteps" value="true" />
	</module>
	<module name="planCalcScore" >
		<!-- logit model scale parameter. default: 1.  Has name and default value for historical reasons (see Bryan Raney's phd thesis). -->
		<param name="BrainExpBeta" value="1.0" />
		<param name="PathSizeLogitBeta" value="1.0" />
		<!-- fraction of iterations at which MSA score averaging is started. The matsim theory department suggests to use this together with switching off choice set innovation (where a similar switch exists), but it has not been tested yet. -->
		<param name="fractionOfIterationsToStartScoreMSA" value="null" />
		<!-- new_score = (1-learningRate)*old_score + learningRate * score_from_mobsim.  learning rates close to zero emulate score averaging, but slow down initial convergence -->
		<param name="learningRate" value="1.0" />
		<!-- There used to be a plateau between duration=0 and duration=zeroUtilityDuration. This caused durations to evolve to zero once they were below zeroUtilityDuration, causing problems.  Only use this switch if you need to be backwards compatible with some old results.  (changed nov'13) -->
		<param name="usingOldScoringBelowZeroUtilityDuration" value="false" />
		<!-- write a plans file in each iteration directory which contains what each agent actually did, and the score it received. -->
		<param name="writeExperiencedPlans" value="false" />
		<parameterset type="scoringParameters" >
			<param name="earlyDeparture" value="-0.0" />
			<param name="lateArrival" value="-18.0" />
			<param name="marginalUtilityOfMoney" value="1.0" />
			<param name="performing" value="6.0" />
			<param name="subpopulation" value="null" />
			<param name="utilityOfLineSwitch" value="-1.0" />
			<param name="waiting" value="-0.0" />
			<param name="waitingPt" value="-6.0" />
			<parameterset type="activityParams" >
				<param name="activityType" value="dummy" />
				<param name="closingTime" value="undefined" />
				<param name="earliestEndTime" value="undefined" />
				<param name="latestStartTime" value="undefined" />
				<param name="minimalDuration" value="undefined" />
				<param name="openingTime" value="undefined" />
				<param name="priority" value="1.0" />
				<param name="scoringThisActivityAtAll" value="true" />
				<!-- typical duration of activity.  needs to be defined and non-zero.  in sec. -->
				<param name="typicalDuration" value="02:00:00" />
				<!-- method to compute score at typical duration.  Options: | uniform | relative | Use uniform for backwards compatibility (all activities same score; higher proba to drop long acts). -->
				<param name="typicalDurationScoreComputation" value="relative" />
			</parameterset>
			<parameterset type="activityParams" >
				<param name="activityType" value="car interaction" />
				<param name="closingTime" value="undefined" />
				<param name="earliestEndTime" value="undefined" />
				<param name="latestStartTime" value="undefined" />
				<param name="minimalDuration" value="undefined" />
				<param name="openingTime" value="undefined" />
				<param name="priority" value="1.0" />
				<param name="scoringThisActivityAtAll" value="false" />
				<param name="typicalDuration" value="undefined" />
				<param name="typicalDurationScoreComputation" value="relative" />
			</parameterset>
			<parameterset type="activityParams" >
				<param name="activityType" value="pt interaction" />
				<param name="closingTime" value="undefined" />
				<param name="earliestEndTime" value="undefined" />
				<param name="latestStartTime" value="undefined" />
				<param name="minimalDuration" value="undefined" />
				<param name="openingTime" value="undefined" />
				<param name="priority" value="1.0" />
				<param name="scoringThisActivityAtAll" value="false" />
				<param name="typicalDuration" value="undefined" />
				<param name="typicalDurationScoreComputation" value="relative" />
			</parameterset>
			<parameterset type="activityParams" >
				<param name="activityType" value="bike interaction" />
				<param name="closingTime" value="undefined" />
				<param name="earliestEndTime" value="undefined" />
				<param name="latestStartTime" value="undefined" />
				<param name="minimalDuration" value="undefined" />
				<param name="openingTime" value="undefined" />
				<param name="priority" value="1.0" />
				<param name="scoringThisActivityAtAll" value="false" />
				<param name="typicalDuration" value="undefined" />
				<param name="typicalDurationScoreComputation" value="relative" />
			</parameterset>
			<parameterset type="activityParams" >
				<param name="activityType" value="drt interaction" />
				<param name="closingTime" value="undefined" />
				<param name="earliestEndTime" value="undefined" />
				<param name="latestStartTime" value="undefined" />
				<param name="minimalDuration" value="undefined" />
				<param name="openingTime" value="undefined" />
				<param name="priority" value="1.0" />
				<param name="scoringThisActivityAtAll" value="false" />
				<param name="typicalDuration" value="undefined" />
				<param name="typicalDurationScoreComputation" value="relative" />
			</parameterset>
			<parameterset type="activityParams" >
				<param name="activityType" value="taxi interaction" />
				<param name="closingTime" value="undefined" />
				<param name="earliestEndTime" value="undefined" />
				<param name="latestStartTime" value="undefined" />
				<param name="minimalDuration" value="undefined" />
				<param name="openingTime" value="undefined" />
				<param name="priority" value="1.0" />
				<param name="scoringThisActivityAtAll" value="false" />
				<param name="typicalDuration" value="undefined" />
				<param name="typicalDurationScoreComputation" value="relative" />
			</parameterset>
			<parameterset type="activityParams" >
				<param name="activityType" value="other interaction" />
				<param name="closingTime" value="undefined" />
				<param name="earliestEndTime" value="undefined" />
				<param name="latestStartTime" value="undefined" />
				<param name="minimalDuration" value="undefined" />
				<param name="openingTime" value="undefined" />
				<param name="priority" value="1.0" />
				<param name="scoringThisActivityAtAll" value="false" />
				<param name="typicalDuration" value="undefined" />
				<param name="typicalDurationScoreComputation" value="relative" />
			</parameterset>
			<parameterset type="activityParams" >
				<param name="activityType" value="walk interaction" />
				<param name="closingTime" value="undefined" />
				<param name="earliestEndTime" value="undefined" />
				<param name="latestStartTime" value="undefined" />
				<param name="minimalDuration" value="undefined" />
				<param name="openingTime" value="undefined" />
				<param name="priority" value="1.0" />
				<param name="scoringThisActivityAtAll" value="false" />
				<param name="typicalDuration" value="undefined" />
				<param name="typicalDurationScoreComputation" value="relative" />
			</parameterset>
			<parameterset type="activityParams" >
				<param name="activityType" value="home" />
				<param name="closingTime" value="undefined" />
				<param name="earliestEndTime" value="undefined" />
				<param name="latestStartTime" value="undefined" />
				<param name="minimalDuration" value="undefined" />
				<param name="openingTime" value="undefined" />
				<param name="priority" value="1.0" />
				<param name="scoringThisActivityAtAll" value="true" />
				<param name="typicalDuration" value="12:00:00" />
				<param name="typicalDurationScoreComputation" value="relative" />
			</parameterset>
			<parameterset type="activityParams" >
				<param name="activityType" value="work" />
				<param name="closingTime" value="undefined" />
				<param name="earliestEndTime" value="undefined" />
				<param name="latestStartTime" value="undefined" />
				<param name="minimalDuration" value="undefined" />
				<param name="openingTime" value="undefined" />
				<param name="priority" value="1.0" />
				<param name="scoringThisActivityAtAll" value="true" />
				<param name="typicalDuration" value="08:00:00" />
				<param name="typicalDurationScoreComputation" value="relative" />
			</parameterset>
			<parameterset type="activityParams" >
				<param name="activityType" value="ride interaction" />
				<param name="closingTime" value="undefined" />
				<param name="earliestEndTime" value="undefined" />
				<param name="latestStartTime" value="undefined" />
				<param name="minimalDuration" value="undefined" />
				<param name="openingTime" value="undefined" />
				<param name="priority" value="1.0" />
				<param name="scoringThisActivityAtAll" value="false" />
				<param name="typicalDuration" value="undefined" />
				<param name="typicalDurationScoreComputation" value="relative" />
			</parameterset>
			<parameterset type="modeParams" >
				<!-- [utils] alternative-specific constant.  Normally per trip, but that is probably buggy for multi-leg trips. -->
				<param name="constant" value="0.0" />
				<!-- [unit_of_money/day] Fixed cost of mode, per day. -->
				<param name="dailyMonetaryConstant" value="0.0" />
				<!-- [utils] daily utility constant. default=0 to be backwards compatible -->
				<param name="dailyUtilityConstant" value="0.0" />
				<!-- [utils/m] utility of traveling (e.g. walking or driving) per m, normally negative.  this is on top of the time (dis)utility. -->
				<param name="marginalUtilityOfDistance_util_m" value="0.0" />
				<!-- [utils/hr] additional marginal utility of traveling.  normally negative.  this comes on top of the opportunity cost of time -->
				<param name="marginalUtilityOfTraveling_util_hr" value="-6.0" />
				<param name="mode" value="ride" />
				<!-- [unit_of_money/m] conversion of distance into money. Normally negative. -->
				<param name="monetaryDistanceRate" value="0.0" />
			</parameterset>
			<parameterset type="modeParams" >
				<param name="constant" value="0.0" />
				<param name="dailyMonetaryConstant" value="0.0" />
				<param name="dailyUtilityConstant" value="0.0" />
				<param name="marginalUtilityOfDistance_util_m" value="0.0" />
				<param name="marginalUtilityOfTraveling_util_hr" value="-6.0" />
				<param name="mode" value="car" />
				<param name="monetaryDistanceRate" value="0.0" />
			</parameterset>
			<parameterset type="modeParams" >
				<param name="constant" value="0.0" />
				<param name="dailyMonetaryConstant" value="0.0" />
				<param name="dailyUtilityConstant" value="0.0" />
				<param name="marginalUtilityOfDistance_util_m" value="0.0" />
				<param name="marginalUtilityOfTraveling_util_hr" value="-6.0" />
				<param name="mode" value="pt" />
				<param name="monetaryDistanceRate" value="0.0" />
			</parameterset>
			<parameterset type="modeParams" >
				<param name="constant" value="0.0" />
				<param name="dailyMonetaryConstant" value="0.0" />
				<param name="dailyUtilityConstant" value="0.0" />
				<param name="marginalUtilityOfDistance_util_m" value="0.0" />
				<param name="marginalUtilityOfTraveling_util_hr" value="-6.0" />
				<param name="mode" value="walk" />
				<param name="monetaryDistanceRate" value="0.0" />
			</parameterset>
			<parameterset type="modeParams" >
				<param name="constant" value="0.0" />
				<param name="dailyMonetaryConstant" value="0.0" />
				<param name="dailyUtilityConstant" value="0.0" />
				<param name="marginalUtilityOfDistance_util_m" value="0.0" />
				<param name="marginalUtilityOfTraveling_util_hr" value="-6.0" />
				<param name="mode" value="bike" />
				<param name="monetaryDistanceRate" value="0.0" />
			</parameterset>
			<parameterset type="modeParams" >
				<param name="constant" value="0.0" />
				<param name="dailyMonetaryConstant" value="0.0" />
				<param name="dailyUtilityConstant" value="0.0" />
				<param name="marginalUtilityOfDistance_util_m" value="0.0" />
				<param name="marginalUtilityOfTraveling_util_hr" value="-6.0" />
				<param name="mode" value="other" />
				<param name="monetaryDistanceRate" value="0.0" />
			</parameterset>
		</parameterset>
	</module>
	<module name="plans" >
		<!-- String: minOfDurationAndEndTime tryEndTimeThenDuration endTimeOnly. Anything besides minOfDurationAndEndTime will internally use a different (simpler) version of the TimeAllocationMutator. -->
		<param name="activityDurationInterpretation" value="tryEndTimeThenDuration" />
		<!-- Possible values: reject,useMainModeIdentifier -->
		<param name="handlingOfPlansWithoutRoutingMode" value="reject" />
		<!-- The Coordinates Reference System in which the coordinates are expressed in the input file. At import, the coordinates will be converted to the coordinate system defined in "global", and willbe converted back at export. If not specified, no conversion happens. -->
		<param name="inputCRS" value="null" />
		<param name="inputPersonAttributesFile" value="null" />
		<param name="inputPlansFile" value="population_test.xml" />
		<param name="insistingOnUsingDeprecatedPersonAttributeFile" value="false" />
		<!-- Defines how routes are stored in memory. Currently supported: LinkNetworkRoute, MediumCompressedNetworkRoute, HeavyCompressedNetworkRoute. -->
		<param name="networkRouteType" value="LinkNetworkRoute" />
		<!-- (not tested) will remove plan attributes that are presumably not used, such as activityStartTime. default=false. Use with Caution! -->
		<param name="removingUnnecessaryPlanAttributes" value="false" />
		<!-- Defines how departure times are interpreted in rerouting applications. If set to 'ignoreDelays', the departure time of a trip when routing along a plan will always be the nominal (plan-based) activity end time. If set to 'shiftActivityEndTimes', routing along a plan will accumulate travel times and shift activity end times if necessary -->
		<param name="tripDurationHandling" value="ignoreDelays" />
	</module>
	<module name="planscalcroute" >
		<!-- Defines how access and egress to main mode is simulated. Either of [none, accessEgressModeToLink, walkConstantTimeToLink, accessEgressModeToLinkPlusTimeConstant], Current default=none which means no access or egress trips are simulated. -->
		<param name="accessEgressType" value="none" />
		<!-- Some typical teleportation routing params are set by default, such as for walk and bike.  Setting this switch to "true" will clear them.  Note that this will also clear settings for helper modes such as for non_network_walk -->
		<param name="clearDefaultTeleportedModeParams" value="true" />
		<!-- All the modes for which the router is supposed to generate network routes (like car) -->
		<param name="networkModes" value="car" />
		<!-- strength of the randomness for the utility of money in routing under toll.  Leads to Pareto-optimal route with randomly drawn money-vs-other-attributes tradeoff. Technically the width parameter of a log-normal distribution. 3.0 seems to be a good value.  -->
		<param name="routingRandomness" value="3.0" />
		<parameterset type="teleportedModeParameters" >
			<param name="beelineDistanceFactor" value="1.3" />
			<param name="mode" value="bike" />
			<!-- Free-speed factor for a teleported mode. Travel time = teleportedModeFreespeedFactor * <freespeed car travel time>. Insert a line like this for every such mode. Please do not set teleportedModeFreespeedFactor as well as teleportedModeSpeed for the same mode, but if you do, +teleportedModeFreespeedFactor wins over teleportedModeSpeed. -->
			<param name="teleportedModeFreespeedFactor" value="null" />
			<!-- Speed for a teleported mode. Travel time = (<beeline distance> * beelineDistanceFactor) / teleportedModeSpeed. Insert a line like this for every such mode. -->
			<param name="teleportedModeSpeed" value="4.166666666666667" />
		</parameterset>
		<parameterset type="teleportedModeParameters" >
			<param name="beelineDistanceFactor" value="1.3" />
			<param name="mode" value="walk" />
			<param name="teleportedModeFreespeedFactor" value="null" />
			<param name="teleportedModeSpeed" value="0.8333333333333333" />
		</parameterset>
		<parameterset type="teleportedModeParameters" >
			<param name="beelineDistanceFactor" value="1.3" />
			<param name="mode" value="undefined" />
			<param name="teleportedModeFreespeedFactor" value="null" />
			<param name="teleportedModeSpeed" value="13.88888888888889" />
		</parameterset>
		<parameterset type="teleportedModeParameters" >
			<param name="beelineDistanceFactor" value="1.3" />
			<param name="mode" value="pt" />
			<param name="teleportedModeFreespeedFactor" value="2.0" />
			<param name="teleportedModeSpeed" value="null" />
		</parameterset>
	</module>
	<module name="ptCounts" >
		<!-- factor by which to re-scale the simulated values.  necessary when simulation runs with something different from 100%.  needs to be adapted manually -->
		<param name="countsScaleFactor" value="1.0" />
		<!-- distance to distanceFilterCenterNode to include counting stations. The unit of distance is the Euclidean distance implied by the coordinate system -->
		<param name="distanceFilter" value="null" />
		<!-- node id for center node of distance filter -->
		<param name="distanceFilterCenterNode" value="null" />
		<!-- input file containing the alighting (getting off) counts for pt -->
		<param name="inputAlightCountsFile" value="null" />
		<!-- input file containing the boarding (getting on) counts for pt -->
		<param name="inputBoardCountsFile" value="null" />
		<!-- input file containing the occupancy counts for pt -->
		<param name="inputOccupancyCountsFile" value="null" />
		<!-- possible values: `html', `txt', `all' -->
		<param name="outputformat" value="null" />
		<!-- every how many iterations (starting with 0) counts comparisons are generated -->
		<param name="ptCountsInterval" value="10" />
	</module>
	<module name="qsim" >
		<param name="endTime" value="undefined" />
		<!-- If set to withLinkAttributes snapshots will only be generated for links which include generateSnapshotForLink as attribute key. Default is no filtering. -->
		<param name="filterSnapshots" value="no" />
		<param name="flowCapacityFactor" value="1.0" />
		<!-- decides if waiting vehicles enter the network after or before the already driving vehicles were moved. Default: false -->
		<param name="insertingWaitingVehiclesBeforeDrivingVehicles" value="true" />
		<!-- If link dynamics is set as SeepageQ, set to false if all seep modes should perform seepage. Default is true (better option). -->
		<param name="isRestrictingSeepage" value="true" />
		<!-- If link dynamics is set as SeepageQ, set to true if seep mode do not consumes any space on the link. Default is false. -->
		<param name="isSeepModeStorageFree" value="false" />
		<!-- default: FIFO; options: FIFO PassingQ SeepageQ -->
		<param name="linkDynamics" value="FIFO" />
		<!-- The (initial) width of the links of the network. Use positive floating point values. This is used only for visualisation. -->
		<param name="linkWidth" value="30.0" />
		<!-- [comma-separated list] Defines which modes are congested modes. Technically, these are the modes that the departure handler of the netsimengine handles.  Effective cell size, effective lane width, flow capacity factor, and storage capacity factor need to be set with diligence.  Need to be vehicular modes to make sense. -->
		<param name="mainMode" value="car" />
		<!-- Shortens a link in the visualization, i.e. its start and end point are moved into towards the center. Does not affect traffic flow.  -->
		<param name="nodeOffset" value="0.0" />
		<!-- Number of threads used for the QSim.  Note that this setting is independent from the "global" threads setting.  In contrast to earlier versions, the non-parallel special version is no longer there. -->
		<param name="numberOfThreads" value="1" />
		<!-- Boolean. `true': stuck vehicles are removed, aborting the plan; `false': stuck vehicles are forced into the next link. `false' is probably the better choice. -->
		<param name="removeStuckVehicles" value="false" />
		<!-- If link dynamics is set as SeepageQ, set a seep mode. Default is bike. -->
		<param name="seepMode" value="bike" />
		<!-- Possible values: minOfEndtimeAndMobsimFinished,onlyUseEndtime -->
		<param name="simEndtimeInterpretation" value="null" />
		<!-- Options: maxOfStarttimeAndEarliestActivityEnd onlyUseStarttime  -->
		<param name="simStarttimeInterpretation" value="maxOfStarttimeAndEarliestActivityEnd" />
		<!-- snapshotStyle. One of: equiDist queue withHoles withHolesAndShowHoles kinematicWaves  -->
		<param name="snapshotStyle" value="queue" />
		<param name="snapshotperiod" value="00:00:00" />
		<param name="startTime" value="undefined" />
		<param name="storageCapacityFactor" value="1.0" />
		<!-- time in seconds.  Time after which the frontmost vehicle on a link is called `stuck' if it does not move. -->
		<param name="stuckTime" value="10.0" />
		<param name="timeStepSize" value="00:00:01" />
		<!-- options: queue withHoles kinematicWaves  -->
		<param name="trafficDynamics" value="queue" />
		<!-- Set this parameter to true if lanes should be used, false if not. -->
		<param name="useLanes" value="false" />
		<!-- If a route does not reference a vehicle, agents will use the vehicle with the same id as their own. -->
		<param name="usePersonIdForMissingVehicleId" value="true" />
		<!-- If false, the qsim accumulates fractional flows up to one flow unit in every time step.  If true, flows are updated only if an agent wants to enter the link or an agent is added to buffer. Default is true. -->
		<param name="usingFastCapacityUpdate" value="true" />
		<!-- Defines what happens if an agent wants to depart, but the specified vehicle is not available. One of: teleport wait exception  -->
		<param name="vehicleBehavior" value="teleport" />
		<!-- If vehicles should all be the same default vehicle, or come from the vehicles file, or something else.  Possible values:  defaultVehicle modeVehicleTypesFromVehiclesData fromVehiclesData -->
		<param name="vehiclesSource" value="defaultVehicle" />
	</module>
	<module name="strategy" >
		<!-- the external executable will be called with a config file as argument.  This is the pathname to a possible skeleton config, to which additional information will be added.  Can be null. -->
		<param name="ExternalExeConfigTemplate" value="null" />
		<!-- time out value (in seconds) after which matsim will consider the external strategy as failed -->
		<param name="ExternalExeTimeOut" value="3600" />
		<!-- root directory for temporary files generated by the external executable. Provided as a service; I don't think this is used by MATSim. -->
		<param name="ExternalExeTmpFileRootDir" value="null" />
		<!-- fraction of iterations where innovative strategies are switched off.  Something like 0.8 should be good.  E.g. if you run from iteration 400 to iteration 500, innovation is switched off at iteration 480 -->
		<param name="fractionOfIterationsToDisableInnovation" value="Infinity" />
		<!-- maximum number of plans per agent.  ``0'' means ``infinity''.  Currently (2010), ``5'' is a good number -->
		<param name="maxAgentPlanMemorySize" value="5" />
		<!-- strategyName of PlanSelector for plans removal.  Possible defaults: WorstPlanSelector SelectRandom SelectExpBetaForRemoval ChangeExpBetaForRemoval PathSizeLogitSelectorForRemoval . The current default, WorstPlanSelector is not a good choice from a discrete choice theoretical perspective. Alternatives, however, have not been systematically tested. kai, feb'12 -->
		<param name="planSelectorForRemoval" value="WorstPlanSelector" />
		<parameterset type="strategysettings" >
			<!-- iteration after which strategy will be disabled.  most useful for ``innovative'' strategies (new routes, new times, ...). Normally, better use fractionOfIterationsToDisableInnovation -->
			<param name="disableAfterIteration" value="-1" />
			<!-- path to external executable (if applicable) -->
			<param name="executionPath" value="null" />
			<!-- strategyName of strategy.  Possible default names: SelectRandom BestScore KeepLastSelected ChangeExpBeta SelectExpBeta SelectPathSizeLogit      (selectors), ReRouteTimeAllocationMutatorTimeAllocationMutator_ReRouteChangeSingleTripModeChangeTripModeSubtourModeChoice (innovative strategies). -->
			<param name="strategyName" value="ChangeExpBeta" />
			<!-- subpopulation to which the strategy applies. "null" refers to the default population, that is, the set of persons for which no explicit subpopulation is defined (ie no subpopulation attribute) -->
			<param name="subpopulation" value="null" />
			<!-- weight of a strategy: for each agent, a strategy will be selected with a probability proportional to its weight -->
			<param name="weight" value="1.0" />
		</parameterset>
	</module>
	<module name="subtourModeChoice" >
		<!-- Only for backwards compatibility.  Defines if only trips from modes list should change mode, or all trips.  Options: fromAllModesToSpecifiedModes fromSpecifiedModesToSpecifiedModes betweenAllAndFewerConstraints  -->
		<param name="behavior" value="fromSpecifiedModesToSpecifiedModes" />
		<!-- Defines the chain-based modes, seperated by commas -->
		<param name="chainBasedModes" value="car,bike" />
		<!-- Defines whether car availability must be considered or not. A agent has no car only if it has no license, or never access to a car -->
		<param name="considerCarAvailability" value="false" />
		<!-- If greater than 0, subtours will also consider coordinates to be at the same location when smaller than set distance. -->
		<param name="coordDistance" value="0.0" />
		<!-- Defines all the modes available, including chain-based modes, seperated by commas -->
		<param name="modes" value="car,pt,bike,walk" />
		<!-- Defines the probability of changing a single trip for a unchained mode instead of subtour. -->
		<param name="probaForRandomSingleTripMode" value="0.0" />
	</module>
	<module name="transit" >
		<!-- The Coordinates Reference System in which the coordinates are expressed in the input file. At import, the coordinates will be converted to the coordinate system defined in "global", and willbe converted back at export. If not specified, no conversion happens. -->
		<param name="inputScheduleCRS" value="null" />
		<param name="insistingOnUsingDeprecatedAttributeFiles" value="false" />
		<!-- The type of transit routing algorithm used, may have the values: [DijkstraBased, SwissRailRaptor] -->
		<param name="routingAlgorithmType" value="SwissRailRaptor" />
		<!-- Optional input file containing additional attributes for transit lines, stored as ObjectAttributes. -->
		<param name="transitLinesAttributesFile" value="null" />
		<!-- Comma-separated list of transportation modes that are handled as transit. Defaults to 'pt'. -->
		<param name="transitModes" value="pt" />
		<!-- Input file containing the transit schedule to be simulated. -->
		<param name="transitScheduleFile" value="null" />
		<!-- Optional input file containing additional attributes for transit stop facilities, stored as ObjectAttributes. -->
		<param name="transitStopsAttributesFile" value="null" />
		<!-- Set this parameter to true if transit should be simulated, false if not. -->
		<param name="useTransit" value="false" />
		<param name="usingTransitInMobsim" value="true" />
		<!-- Input file containing the vehicles used by the departures in the transit schedule. -->
		<param name="vehiclesFile" value="null" />
	</module>
	<module name="transitRouter" >
		<!-- additional time the router allocates when a line switch happens. Can be interpreted as a 'safety' time that agents need to safely transfer from one line to another -->
		<param name="additionalTransferTime" value="0.0" />
		<!-- Factor with which direct walk generalized cost is multiplied before it is compared to the pt generalized cost.  Set to a very high value to reduce direct walk results. -->
		<param name="directWalkFactor" value="1.0" />
		<!-- step size to increase searchRadius if no stops are found -->
		<param name="extensionRadius" value="200.0" />
		<!-- maximum beeline distance between stops that agents could transfer to by walking -->
		<param name="maxBeelineWalkConnectionDistance" value="100.0" />
		<!-- the radius in which stop locations are searched, given a start or target coordinate -->
		<param name="searchRadius" value="1000.0" />
	</module>
	<module name="travelTimeCalculator" >
		<!-- (only for backwards compatibility; only used if separateModes==false && + filterModes==true)  Transport modes that will be respected by the travel time collector. 'car' is default which includes also buses from the pt simulation module. -->
		<param name="analyzedModes" value="car" />
		<param name="calculateLinkToLinkTravelTimes" value="false" />
		<param name="calculateLinkTravelTimes" value="true" />
		<!-- (only for backwards compatiblity; only used if separateModes==false)  Only modes included in analyzedModes are included. -->
		<param name="filterModes" value="false" />
		<!-- The lenght (in sec) of the time period that is splited into time bins; an additional time bin is created to aggregate all travel times collected after maxTime -->
		<param name="maxTime" value="108000" />
		<!-- (only for backwards compatibility) If false, link travel times are measured and aggregated over all vehicles using the link. -->
		<param name="separateModes" value="true" />
		<!-- How to deal with congested time bins that have no link entry events. `optimistic' assumes free speed (too optimistic); 'experimental_LastMile' is experimental and probably too pessimistic. -->
		<param name="travelTimeAggregator" value="optimistic" />
		<!-- The size of the time bin (in sec) into which the link travel times are aggregated for the router -->
		<param name="travelTimeBinSize" value="900" />
		<!-- possible values: TravelTimeCalculatorArray TravelTimeCalculatorHashMap  -->
		<param name="travelTimeCalculator" value="TravelTimeCalculatorArray" />
		<!-- How to deal with link entry times at different positions during the time bin. Currently supported: average, linearinterpolation -->
		<param name="travelTimeGetter" value="average" />
	</module>
	<module name="vehicles" >
		<param name="vehiclesFile" value="sample_emissionVehicles_v2.xml" />
	</module>
	<module name="vspExperimental" >
		<!-- (do not use except of you have to) There was a problem with pt interaction scoring.  Some people solved it by overwriting the parameters of the pt interaction activity type.  Doing this now throws an Exception.  If you still insist on doing this, set the following to true. -->
		<param name="isAbleToOverwritePtInteractionParams" value="false" />
		<param name="isGeneratingBoardingDeniedEvent" value="false" />
		<!-- if an approximation of the opportunity cost of time is included into the radius calculation for location choice.`true' will be faster, but it is an approximation.  Default is `true'; `false' is available for backwards compatibility. -->
		<param name="isUsingOpportunityCostOfTimeForLocationChoice" value="true" />
		<param name="logitScaleParamForPlansRemoval" value="1.0" />
		<!-- Options: | ignore | info | warn | abort | .  When violating VSP defaults, this results in nothing, logfile infos, logfile warnings, or aborts.  Members of VSP should use `abort' or talk to kai. -->
		<param name="vspDefaultsCheckingLevel" value="warn" />
		<!-- if true then writes output_events in output directory.  default is `false'. Will only work when lastIteration is multiple of events writing interval -->
		<param name="writingOutputEvents" value="true" />
	</module>

</config>

2024-05-30T10:51:59,078  INFO ControlerUtils:85 Complete config dump done.
2024-05-30T10:51:59,078  INFO ControlerUtils:86 Checking consistency of config...
2024-05-30T10:51:59,078  INFO PlanCalcScoreConfigGroup$ScoringParameterSet:1555 NO OPENING OR CLOSING TIMES DEFINED!

There is no activity type that has an opening *and* closing time (or opening time and late penalty) defined.
This usually means that the activity chains can be shifted by an arbitrary
number of hours without having an effect on the score of the plans, and thus
resulting in wrong results / traffic patterns.
If you are using MATSim without time adaptation, you can ignore this warning.


2024-05-30T10:51:59,078  INFO VspConfigConsistencyCheckerImpl:78 running checkConsistency ...
2024-05-30T10:51:59,078  WARN VspConfigConsistencyCheckerImpl:89 you are insisting on config v1.  vsp default is using v2.
2024-05-30T10:51:59,078  WARN VspConfigConsistencyCheckerImpl:404 you are not using SpeedyALT as routing algorithm.  vsp default (since may'21) is to use SpeedeALT.
2024-05-30T10:51:59,078  WARN VspConfigConsistencyCheckerImpl:190 You are not setting fractionOfIterationsToStartScoreMSA; vsp default is to set this to something like 0.8.  This means you have to add the following lines to your config file: 
2024-05-30T10:51:59,078  WARN VspConfigConsistencyCheckerImpl:192 <module name="planCalcScore">
2024-05-30T10:51:59,078  WARN VspConfigConsistencyCheckerImpl:193 	<param name="fractionOfIterationsToStartScoreMSA" value="0.8" />
2024-05-30T10:51:59,079  WARN VspConfigConsistencyCheckerImpl:194 </module>
2024-05-30T10:51:59,079  WARN VspConfigConsistencyCheckerImpl:212 You are not removing unnecessary plan attributes; vsp default is to do that.
2024-05-30T10:51:59,079  WARN VspConfigConsistencyCheckerImpl:245 found `PlansCalcRouteConfigGroup.AccessEgressType.none'; vsp should use `accessEgressModeToLink' or some other value or talk to Kai.
2024-05-30T10:51:59,079  WARN VspConfigConsistencyCheckerImpl:252 found qsim.usePersonIdForMissingVehicleId==true; this is only for backwards compatibility and should rather be set to false
2024-05-30T10:51:59,079  WARN VspConfigConsistencyCheckerImpl:257 found `qsim.usingTravelTimeCheckInTeleporation==false'; vsp should try out `true' and report.
2024-05-30T10:51:59,079  WARN VspConfigConsistencyCheckerImpl:270  found 'qsim.trafficDynamics==queue'; vsp standard is`kinematicWaves'.
2024-05-30T10:51:59,079  WARN VspConfigConsistencyCheckerImpl:300 You have not set fractionOfIterationsToDisableInnovation; vsp default is to set this to 0.8 or similar.  Add the following config lines:
2024-05-30T10:51:59,079  WARN VspConfigConsistencyCheckerImpl:301 <module name="strategy">
2024-05-30T10:51:59,080  WARN VspConfigConsistencyCheckerImpl:302 	<param name="fractionOfIterationsToDisableInnovation" value="0.8" />
2024-05-30T10:51:59,080  WARN VspConfigConsistencyCheckerImpl:303 </module>
2024-05-30T10:51:59,084  INFO ControlerUtils:88 Checking consistency of config done.
2024-05-30T10:51:59,129  WARN PrepareForSimImpl:229 'usePersonIdForMissingVehicleId' is deprecated. It will be removed soon.
2024-05-30T10:51:59,130  INFO Counter:70 [VehiclesImpl] added vehicle # 16
2024-05-30T10:51:59,130  INFO Counter:70 [VehiclesImpl] added vehicle # 32
2024-05-30T10:51:59,131  INFO Counter:70 [VehiclesImpl] added vehicle # 64
2024-05-30T10:51:59,133  INFO Counter:70 [VehiclesImpl] added vehicle # 128
2024-05-30T10:51:59,136  INFO Counter:70 [VehiclesImpl] added vehicle # 256
2024-05-30T10:51:59,139  INFO Counter:70 [VehiclesImpl] added vehicle # 512
2024-05-30T10:51:59,144  INFO Counter:70 [VehiclesImpl] added vehicle # 1024
2024-05-30T10:51:59,150  INFO Counter:70 [VehiclesImpl] added vehicle # 2048
2024-05-30T10:51:59,160  INFO Counter:70 [VehiclesImpl] added vehicle # 4096
2024-05-30T10:51:59,178  INFO Counter:70 [VehiclesImpl] added vehicle # 8192
2024-05-30T10:51:59,210  INFO Counter:70 [VehiclesImpl] added vehicle # 16384
2024-05-30T10:51:59,714  INFO PreProcessDijkstra:119 nodes in dead ends: 38929 (total nodes: 106802). Done in 261 ms
2024-05-30T10:51:59,785  INFO PreProcessLandmarks:113 Putting landmarks on network...
2024-05-30T10:51:59,808  INFO LandmarkerPieSlices:97 Filling sectors...
2024-05-30T10:52:00,000  INFO LandmarkerPieSlices:108 Refining landmarks...
2024-05-30T10:52:00,019  INFO LandmarkerPieSlices:110 done
2024-05-30T10:52:00,020  INFO PreProcessLandmarks:116 done in 234 ms
2024-05-30T10:52:00,020  INFO PreProcessLandmarks:118 Initializing landmarks data
2024-05-30T10:52:00,058  INFO PreProcessLandmarks:130 Calculating distance from each node to each of the 16 landmarks using 2 threads...
2024-05-30T10:52:00,059  INFO PreProcessLandmarks:140 wait for landmarks Calculator to finish...
2024-05-30T10:52:03,178  INFO PreProcessLandmarks:164 done in 3120 ms
2024-05-30T10:52:03,197  INFO NetworkImpl:165  node # 1
2024-05-30T10:52:03,197  INFO NetworkImpl:165  node # 4
2024-05-30T10:52:03,197  INFO NetworkImpl:165  node # 16
2024-05-30T10:52:03,198  INFO NetworkImpl:165  node # 64
2024-05-30T10:52:03,206  INFO NetworkImpl:165  node # 256
2024-05-30T10:52:03,209  INFO NetworkImpl:165  node # 1024
2024-05-30T10:52:03,210  INFO NetworkImpl:165  node # 4096
2024-05-30T10:52:03,218  INFO NetworkImpl:165  node # 16384
2024-05-30T10:52:03,231  INFO NetworkImpl:165  node # 65536
2024-05-30T10:52:03,243  INFO NetworkImpl:161  link # 1
2024-05-30T10:52:03,243  INFO NetworkImpl:161  link # 4
2024-05-30T10:52:03,243  INFO NetworkImpl:161  link # 16
2024-05-30T10:52:03,243  INFO NetworkImpl:161  link # 64
2024-05-30T10:52:03,245  INFO NetworkImpl:161  link # 256
2024-05-30T10:52:03,247  INFO NetworkImpl:161  link # 1024
2024-05-30T10:52:03,254  INFO NetworkImpl:161  link # 4096
2024-05-30T10:52:03,280  INFO NetworkImpl:161  link # 16384
2024-05-30T10:52:03,363  INFO NetworkImpl:161  link # 65536
2024-05-30T10:52:03,644  WARN RandomizingTimeDistanceTravelDisutilityFactory:113 There will be no routing randomness. The randomization of the travel disutility requires the monetary distance rate to be different than zero. Continuing anyway.
2024-05-30T10:52:03,644  WARN RandomizingTimeDistanceTravelDisutilityFactory:118 There will be no routing randomness. The randomization of the travel disutility requires the travel time cost rate to be different than zero. Continuing anyway.
2024-05-30T10:52:03,646  INFO RandomizingTimeDistanceTravelDisutilityFactory:86  sigma: 3.0; resulting normalization: 0.011108996538242306
2024-05-30T10:52:04,377  INFO PreProcessDijkstra:119 nodes in dead ends: 38929 (total nodes: 106802). Done in 726 ms
2024-05-30T10:52:04,470  INFO PreProcessLandmarks:113 Putting landmarks on network...
2024-05-30T10:52:04,480  INFO LandmarkerPieSlices:97 Filling sectors...
2024-05-30T10:52:04,674  INFO LandmarkerPieSlices:108 Refining landmarks...
2024-05-30T10:52:04,691  INFO LandmarkerPieSlices:110 done
2024-05-30T10:52:04,692  INFO PreProcessLandmarks:116 done in 221 ms
2024-05-30T10:52:04,692  INFO PreProcessLandmarks:118 Initializing landmarks data
2024-05-30T10:52:04,779  INFO PreProcessLandmarks:130 Calculating distance from each node to each of the 16 landmarks using 2 threads...
2024-05-30T10:52:04,780  INFO PreProcessLandmarks:140 wait for landmarks Calculator to finish...
2024-05-30T10:52:08,725  INFO PreProcessLandmarks:164 done in 3945 ms
2024-05-30T10:52:08,765  INFO RandomizingTimeDistanceTravelDisutilityFactory:86  sigma: 3.0; resulting normalization: 0.011108996538242306
2024-05-30T10:52:08,815  INFO NetworkImpl:419 building QuadTree for nodes: xrange(8494396.458028924,8527402.478718683); yrange(1107400.5437755862,1134680.7490567388)
2024-05-30T10:52:08,905  INFO NetworkImpl:428 Building QuadTree took 0.113 seconds.
2024-05-30T10:52:08,924  INFO Counter:70 [PersonPrepareForSim] handled person # 1
2024-05-30T10:52:08,924  INFO Counter:70 [PersonPrepareForSim] handled person # 4
2024-05-30T10:52:08,924  INFO Counter:70 [PersonPrepareForSim] handled person # 2
2024-05-30T10:52:08,925  INFO Counter:70 [PersonPrepareForSim] handled person # 8
2024-05-30T10:52:08,925  INFO Counter:70 [PersonPrepareForSim] handled person # 16
2024-05-30T10:52:08,927  INFO Counter:70 [PersonPrepareForSim] handled person # 32
2024-05-30T10:52:08,928  INFO Counter:70 [PersonPrepareForSim] handled person # 64
2024-05-30T10:52:08,933  INFO Counter:70 [PersonPrepareForSim] handled person # 128
2024-05-30T10:52:08,938  INFO Counter:70 [PersonPrepareForSim] handled person # 256
2024-05-30T10:52:08,946  INFO Counter:70 [PersonPrepareForSim] handled person # 512
2024-05-30T10:52:08,953  INFO Counter:70 [PersonPrepareForSim] handled person # 1024
2024-05-30T10:52:08,962  INFO Counter:70 [PersonPrepareForSim] handled person # 2048
2024-05-30T10:52:08,981  INFO Counter:70 [PersonPrepareForSim] handled person # 4096
2024-05-30T10:52:09,016  INFO Counter:70 [PersonPrepareForSim] handled person # 8192
2024-05-30T10:52:09,077  INFO Counter:70 [PersonPrepareForSim] handled person # 16384
2024-05-30T10:52:09,127  INFO Counter:75 [PersonPrepareForSim] handled person # 24988
2024-05-30T10:52:09,178  INFO AbstractController:134 ###################################################
2024-05-30T10:52:09,179  INFO AbstractController:135 ### ITERATION 0 BEGINS
2024-05-30T10:52:09,182  INFO ControlerListenerManagerImpl:146 calling notifyIterationStarts on org.matsim.analysis.LegHistogramListener
2024-05-30T10:52:09,183  INFO ControlerListenerManagerImpl:146 calling notifyIterationStarts on org.matsim.analysis.LinkStatsControlerListener
2024-05-30T10:52:09,183  INFO ControlerListenerManagerImpl:146 calling notifyIterationStarts on org.matsim.core.replanning.ReplanningContextImpl
2024-05-30T10:52:09,183  INFO ControlerListenerManagerImpl:146 calling notifyIterationStarts on org.matsim.core.scoring.ScoringFunctionsForPopulation$$Lambda$238/0x0000000801335310
2024-05-30T10:52:09,257  INFO ControlerListenerManagerImpl:146 calling notifyIterationStarts on org.matsim.core.scoring.ExperiencedPlansServiceImpl$1
2024-05-30T10:52:09,264  INFO ControlerListenerManagerImpl:149 [it.0] all ControlerIterationStartsListeners called.
2024-05-30T10:52:09,265  INFO ControlerListenerManagerImpl:225 calling notifyBeforeMobsim on org.matsim.core.controler.corelisteners.EventsHandlingImpl
2024-05-30T10:52:09,266  INFO EventsManagerImpl:168 resetting Event-Handlers
2024-05-30T10:52:09,266  INFO EventsManagerImpl:175   org.matsim.core.trafficmonitoring.TravelTimeCalculator
2024-05-30T10:52:09,266  INFO EventsManagerImpl:175   org.matsim.analysis.VolumesAnalyzer
2024-05-30T10:52:09,267  INFO EventsManagerImpl:175   org.matsim.core.scoring.ScoringFunctionsForPopulation
2024-05-30T10:52:09,267  INFO EventsManagerImpl:175   org.matsim.analysis.LegHistogram
2024-05-30T10:52:09,267  INFO EventsManagerImpl:175   org.matsim.analysis.CalcLegTimes
2024-05-30T10:52:09,275  INFO EventsManagerImpl:138 adding Event-Handler: org.matsim.core.events.algorithms.EventWriterXML
2024-05-30T10:52:09,275  INFO EventsManagerImpl:144   org.matsim.core.events.algorithms.EventWriter
2024-05-30T10:52:09,277  INFO EventsManagerImpl:144   org.matsim.core.events.handler.BasicEventHandler
2024-05-30T10:52:09,277  INFO EventsManagerImpl:205     > org.matsim.api.core.v01.events.Event
2024-05-30T10:52:09,278  INFO EventsManagerImpl:154 
2024-05-30T10:52:09,278  INFO EventsManagerImpl:138 adding Event-Handler: org.matsim.core.events.algorithms.EventWriterXML
2024-05-30T10:52:09,278  INFO EventsManagerImpl:144   org.matsim.core.events.algorithms.EventWriter
2024-05-30T10:52:09,278  INFO EventsManagerImpl:144   org.matsim.core.events.handler.BasicEventHandler
2024-05-30T10:52:09,278  INFO EventsManagerImpl:205     > org.matsim.api.core.v01.events.Event
2024-05-30T10:52:09,278  INFO EventsManagerImpl:154 
2024-05-30T10:52:09,278  INFO ControlerListenerManagerImpl:225 calling notifyBeforeMobsim on org.matsim.core.controler.corelisteners.PlansDumpingImpl
2024-05-30T10:52:09,278  INFO PlansDumpingImpl:77 dumping plans...
2024-05-30T10:52:09,336  INFO Counter:70 [PopulationWriter] dumped person # 1
2024-05-30T10:52:09,338  INFO Counter:70 [PopulationWriter] dumped person # 2
2024-05-30T10:52:09,339  INFO Counter:70 [PopulationWriter] dumped person # 4
2024-05-30T10:52:09,340  INFO Counter:70 [PopulationWriter] dumped person # 8
2024-05-30T10:52:09,342  INFO Counter:70 [PopulationWriter] dumped person # 16
2024-05-30T10:52:09,346  INFO Counter:70 [PopulationWriter] dumped person # 32
2024-05-30T10:52:09,354  INFO Counter:70 [PopulationWriter] dumped person # 64
2024-05-30T10:52:09,364  INFO Counter:70 [PopulationWriter] dumped person # 128
2024-05-30T10:52:09,381  INFO Counter:70 [PopulationWriter] dumped person # 256
2024-05-30T10:52:09,410  INFO Counter:70 [PopulationWriter] dumped person # 512
2024-05-30T10:52:09,444  INFO Counter:70 [PopulationWriter] dumped person # 1024
2024-05-30T10:52:09,502  INFO Counter:70 [PopulationWriter] dumped person # 2048
2024-05-30T10:52:09,579  INFO Counter:70 [PopulationWriter] dumped person # 4096
2024-05-30T10:52:09,726  INFO Counter:70 [PopulationWriter] dumped person # 8192
2024-05-30T10:52:10,075  INFO Counter:70 [PopulationWriter] dumped person # 16384
2024-05-30T10:52:10,365  INFO PopulationWriter:145 Population written to: ./output/ITERS/it.0/0.plans.xml.gz
2024-05-30T10:52:10,366  INFO Counter:75 [PopulationWriter] dumped person # 24988
2024-05-30T10:52:10,366  INFO PlansDumpingImpl:94 finished plans dump.
2024-05-30T10:52:10,366  INFO ControlerListenerManagerImpl:230 calling notifyBeforeMobsim on org.matsim.core.population.VspPlansCleaner
2024-05-30T10:52:10,392  INFO ControlerListenerManagerImpl:233 [it.0] all ControlerBeforeMobsimListeners called.
2024-05-30T10:52:10,403  INFO RandomizingTimeDistanceTravelDisutilityFactory:86  sigma: 3.0; resulting normalization: 0.011108996538242306
2024-05-30T10:52:10,413  INFO RandomizingTimeDistanceTravelDisutilityFactory:86  sigma: 3.0; resulting normalization: 0.011108996538242306
2024-05-30T10:52:10,425  INFO Counter:70 [PersonPrepareForSim] handled person # 2
2024-05-30T10:52:10,425  INFO Counter:70 [PersonPrepareForSim] handled person # 1
2024-05-30T10:52:10,426  INFO Counter:70 [PersonPrepareForSim] handled person # 4
2024-05-30T10:52:10,426  INFO Counter:70 [PersonPrepareForSim] handled person # 8
2024-05-30T10:52:10,426  INFO Counter:70 [PersonPrepareForSim] handled person # 16
2024-05-30T10:52:10,426  INFO Counter:70 [PersonPrepareForSim] handled person # 32
2024-05-30T10:52:10,426  INFO Counter:70 [PersonPrepareForSim] handled person # 64
2024-05-30T10:52:10,426  INFO Counter:70 [PersonPrepareForSim] handled person # 128
2024-05-30T10:52:10,427  INFO Counter:70 [PersonPrepareForSim] handled person # 256
2024-05-30T10:52:10,427  INFO Counter:70 [PersonPrepareForSim] handled person # 512
2024-05-30T10:52:10,428  INFO Counter:70 [PersonPrepareForSim] handled person # 1024
2024-05-30T10:52:10,430  INFO Counter:70 [PersonPrepareForSim] handled person # 2048
2024-05-30T10:52:10,432  INFO Counter:70 [PersonPrepareForSim] handled person # 4096
2024-05-30T10:52:10,437  INFO Counter:70 [PersonPrepareForSim] handled person # 8192
2024-05-30T10:52:10,447  INFO Counter:70 [PersonPrepareForSim] handled person # 16384
2024-05-30T10:52:10,470  INFO Counter:75 [PersonPrepareForSim] handled person # 24988
2024-05-30T10:52:10,555  INFO MobsimListenerManager:50 calling addQueueSimulationListener
2024-05-30T10:52:10,555  INFO MobsimListenerManager:54   assigned class org.matsim.core.mobsim.framework.listeners.MobsimListener to interface org.matsim.vis.snapshotwriters.SnapshotWriterManager
2024-05-30T10:52:10,555  INFO MobsimListenerManager:54   assigned class org.matsim.core.mobsim.framework.listeners.MobsimListener to interface org.matsim.core.mobsim.framework.listeners.MobsimListener
2024-05-30T10:52:10,556  INFO MobsimListenerManager:54   assigned class org.matsim.core.mobsim.framework.listeners.MobsimListener to interface org.matsim.core.mobsim.framework.listeners.MobsimAfterSimStepListener
2024-05-30T10:52:10,556  INFO MobsimListenerManager:54   assigned class org.matsim.core.mobsim.framework.listeners.MobsimListener to interface org.matsim.core.mobsim.framework.listeners.MobsimBeforeCleanupListener
2024-05-30T10:52:10,556  INFO MobsimListenerManager:54   assigned class org.matsim.core.mobsim.framework.listeners.MobsimListener to interface org.matsim.core.mobsim.framework.listeners.MobsimInitializedListener
2024-05-30T10:52:11,705  INFO QSimProvider:131 Added MobsimEngine class org.matsim.core.mobsim.qsim.ActivityEngineDefaultImpl
2024-05-30T10:52:11,705  INFO QSimProvider:137 Added Activityhandler class org.matsim.core.mobsim.qsim.ActivityEngineDefaultImpl
2024-05-30T10:52:11,705  INFO QSimProvider:143 Added DepartureHandler class org.matsim.core.mobsim.qsim.qnetsimengine.VehicularDepartureHandler
2024-05-30T10:52:11,705  INFO QSimProvider:131 Added MobsimEngine class org.matsim.core.mobsim.qsim.qnetsimengine.QNetsimEngineWithThreadpool
2024-05-30T10:52:11,705  INFO QSimProvider:131 Added MobsimEngine class org.matsim.core.mobsim.qsim.DefaultTeleportationEngine
2024-05-30T10:52:11,705  INFO QSimProvider:143 Added DepartureHandler class org.matsim.core.mobsim.qsim.DefaultTeleportationEngine
2024-05-30T10:52:11,706  INFO QSimProvider:149 Added AgentSource class org.matsim.core.mobsim.qsim.agents.PopulationAgentSource
2024-05-30T10:52:11,706  INFO MobsimListenerManager:50 calling addQueueSimulationListener
2024-05-30T10:52:11,706  INFO MobsimListenerManager:54   assigned class org.matsim.core.mobsim.framework.listeners.MobsimListener to interface org.matsim.core.mobsim.framework.listeners.MobsimListener
2024-05-30T10:52:11,706  INFO MobsimListenerManager:54   assigned class org.matsim.core.mobsim.framework.listeners.MobsimListener to interface org.matsim.core.mobsim.qsim.messagequeueengine.MessageQueueEngine
2024-05-30T10:52:11,706  INFO MobsimListenerManager:54   assigned class org.matsim.core.mobsim.framework.listeners.MobsimListener to interface org.matsim.core.mobsim.framework.listeners.MobsimBeforeSimStepListener
2024-05-30T10:52:11,706  INFO QSimProvider:155 Added MobsimListener class org.matsim.core.mobsim.qsim.messagequeueengine.MessageQueueEngine
2024-05-30T10:52:11,718  INFO PopulationUtils:1202 adding scenario element for allpersons container
2024-05-30T10:52:11,718  INFO PopulationImpl:107  person # 1
2024-05-30T10:52:11,720  INFO PopulationImpl:107  person # 4
2024-05-30T10:52:11,720  INFO PopulationImpl:107  person # 16
2024-05-30T10:52:11,720  INFO PopulationImpl:107  person # 64
2024-05-30T10:52:11,722  INFO PopulationImpl:107  person # 256
2024-05-30T10:52:11,725  INFO PopulationImpl:107  person # 1024
2024-05-30T10:52:11,732  INFO PopulationImpl:107  person # 4096
2024-05-30T10:52:11,756  INFO PopulationImpl:107  person # 16384
2024-05-30T10:52:11,777  INFO VehicleUtils:328 adding scenario element for allvehicles container
2024-05-30T10:52:11,777  INFO Counter:70 [VehiclesImpl] added vehicle # 1
2024-05-30T10:52:11,777  INFO Counter:70 [VehiclesImpl] added vehicle # 2
2024-05-30T10:52:11,777  INFO Counter:70 [VehiclesImpl] added vehicle # 4
2024-05-30T10:52:11,777  INFO Counter:70 [VehiclesImpl] added vehicle # 8
2024-05-30T10:52:11,778  INFO Counter:70 [VehiclesImpl] added vehicle # 16
2024-05-30T10:52:11,778  INFO Counter:70 [VehiclesImpl] added vehicle # 32
2024-05-30T10:52:11,778  INFO Counter:70 [VehiclesImpl] added vehicle # 64
2024-05-30T10:52:11,779  INFO Counter:70 [VehiclesImpl] added vehicle # 128
2024-05-30T10:52:11,781  INFO Counter:70 [VehiclesImpl] added vehicle # 256
2024-05-30T10:52:11,783  INFO Counter:70 [VehiclesImpl] added vehicle # 512
2024-05-30T10:52:11,786  INFO Counter:70 [VehiclesImpl] added vehicle # 1024
2024-05-30T10:52:11,789  INFO Counter:70 [VehiclesImpl] added vehicle # 2048
2024-05-30T10:52:11,796  INFO Counter:70 [VehiclesImpl] added vehicle # 4096
2024-05-30T10:52:11,809  INFO Counter:70 [VehiclesImpl] added vehicle # 8192
2024-05-30T10:52:11,830  INFO Counter:70 [VehiclesImpl] added vehicle # 16384
2024-05-30T10:52:12,173  INFO AbstractQNetsimEngine:428 Assigned 106802 nodes and 242617 links to QSimEngineRunner #0
2024-05-30T10:52:12,230  INFO EventsManagerImpl:115  event # 1
2024-05-30T10:52:12,238  INFO EventsManagerImpl:115  event # 4
2024-05-30T10:52:12,239  INFO EventsManagerImpl:115  event # 16
2024-05-30T10:52:12,241  INFO EventsManagerImpl:115  event # 64
2024-05-30T10:52:12,252  INFO EventsManagerImpl:115  event # 256
2024-05-30T10:52:12,268  INFO EventsManagerImpl:115  event # 1024
2024-05-30T10:52:12,304  INFO EventsManagerImpl:115  event # 4096
2024-05-30T10:52:12,546  INFO EventsManagerImpl:115  event # 16384
2024-05-30T10:52:13,093  INFO AbstractQNetsimEngine:366 SIMULATION (QNetsimEngine) AT 08:00:00 : #links=0 #nodes=0
2024-05-30T10:52:13,109  INFO QSim:566 SIMULATION (NEW QSim) AT 08:00:00 : #Veh=24988 lost=0 simT=0.0s realT=2s; (s/r): 0.0
2024-05-30T10:52:13,125  INFO EventsManagerImpl:115  event # 65536
2024-05-30T10:52:14,415  INFO AbstractQNetsimEngine:366 SIMULATION (QNetsimEngine) AT 09:00:00 : #links=0 #nodes=0
2024-05-30T10:52:14,416  INFO QSim:566 SIMULATION (NEW QSim) AT 09:00:00 : #Veh=24988 lost=0 simT=3600.0s realT=3s; (s/r): 1200.0
2024-05-30T10:52:14,765  INFO AbstractQNetsimEngine:366 SIMULATION (QNetsimEngine) AT 10:00:00 : #links=0 #nodes=0
2024-05-30T10:52:14,765  INFO QSim:566 SIMULATION (NEW QSim) AT 10:00:00 : #Veh=24988 lost=0 simT=7200.0s realT=4s; (s/r): 1800.0
2024-05-30T10:52:15,034  INFO AbstractQNetsimEngine:366 SIMULATION (QNetsimEngine) AT 11:00:00 : #links=0 #nodes=0
2024-05-30T10:52:15,034  INFO QSim:566 SIMULATION (NEW QSim) AT 11:00:00 : #Veh=24988 lost=0 simT=10800.0s realT=4s; (s/r): 2700.0
2024-05-30T10:52:15,348  INFO AbstractQNetsimEngine:366 SIMULATION (QNetsimEngine) AT 12:00:00 : #links=0 #nodes=0
2024-05-30T10:52:15,348  INFO QSim:566 SIMULATION (NEW QSim) AT 12:00:00 : #Veh=24988 lost=0 simT=14400.0s realT=4s; (s/r): 3600.0
2024-05-30T10:52:15,657  INFO AbstractQNetsimEngine:366 SIMULATION (QNetsimEngine) AT 13:00:00 : #links=0 #nodes=0
2024-05-30T10:52:15,657  INFO QSim:566 SIMULATION (NEW QSim) AT 13:00:00 : #Veh=24988 lost=0 simT=18000.0s realT=5s; (s/r): 3600.0
2024-05-30T10:52:15,966  INFO AbstractQNetsimEngine:366 SIMULATION (QNetsimEngine) AT 14:00:00 : #links=0 #nodes=0
2024-05-30T10:52:15,966  INFO QSim:566 SIMULATION (NEW QSim) AT 14:00:00 : #Veh=24988 lost=0 simT=21600.0s realT=5s; (s/r): 4320.0
2024-05-30T10:52:16,283  INFO AbstractQNetsimEngine:366 SIMULATION (QNetsimEngine) AT 15:00:00 : #links=0 #nodes=0
2024-05-30T10:52:16,283  INFO QSim:566 SIMULATION (NEW QSim) AT 15:00:00 : #Veh=24988 lost=0 simT=25200.0s realT=5s; (s/r): 5040.0
2024-05-30T10:52:16,583  INFO AbstractQNetsimEngine:366 SIMULATION (QNetsimEngine) AT 16:00:00 : #links=0 #nodes=0
2024-05-30T10:52:16,583  INFO QSim:566 SIMULATION (NEW QSim) AT 16:00:00 : #Veh=24988 lost=0 simT=28800.0s realT=6s; (s/r): 4800.0
2024-05-30T10:52:16,900  INFO AbstractQNetsimEngine:366 SIMULATION (QNetsimEngine) AT 17:00:00 : #links=0 #nodes=0
2024-05-30T10:52:16,901  INFO QSim:566 SIMULATION (NEW QSim) AT 17:00:00 : #Veh=24988 lost=0 simT=32400.0s realT=6s; (s/r): 5400.0
2024-05-30T10:52:17,345  INFO EventsManagerImpl:115  event # 262144
2024-05-30T10:52:18,108  INFO AbstractController$9:235 ### ITERATION 0 fires after mobsim event
2024-05-30T10:52:18,109  INFO ControlerListenerManagerImpl:249 calling notifyAfterMobsim on org.matsim.analysis.LegTimesControlerListener
2024-05-30T10:52:18,110  INFO Gbl:192 Thread performance: Thread=class org.matsim.core.events.SimStepParallelEventsManagerImpl$ProcessEventsRunnable0  cpu-time=1.4375sec
2024-05-30T10:52:18,116  INFO LegTimesControlerListener:51 [0] average trip (probably: leg) duration is: 0 seconds = 00:00:00
2024-05-30T10:52:18,116  INFO ControlerListenerManagerImpl:249 calling notifyAfterMobsim on org.matsim.core.events.MobsimScopeEventHandling
2024-05-30T10:52:18,117  INFO ControlerListenerManagerImpl:249 calling notifyAfterMobsim on org.matsim.core.scoring.EventsToActivities$1
2024-05-30T10:52:18,143  INFO ControlerListenerManagerImpl:252 [it.0] all ControlerAfterMobsimListeners called.
2024-05-30T10:52:18,144  INFO AbstractController$4:160 ### ITERATION 0 fires scoring event
2024-05-30T10:52:18,144  INFO ControlerListenerManagerImpl:184 calling notifyScoring on org.matsim.core.scoring.PlansScoringImpl
2024-05-30T10:52:18,166  INFO NewScoreAssignerImpl:58 it: 0 msaStart: null
2024-05-30T10:52:18,183  INFO ControlerListenerManagerImpl:195 [it.0] all ControlerScoringListeners called.
2024-05-30T10:52:18,184  INFO AbstractController$5:168 ### ITERATION 0 fires iteration end event
2024-05-30T10:52:18,184  INFO ControlerListenerManagerImpl:161 calling notifyIterationEnds on org.matsim.core.controler.corelisteners.EventsHandlingImpl
2024-05-30T10:52:18,185  INFO EventsManagerImpl:159 removing Event-Handler: org.matsim.core.events.algorithms.EventWriterXML
2024-05-30T10:52:18,185  INFO EventsManagerImpl:159 removing Event-Handler: org.matsim.core.events.algorithms.EventWriterXML
2024-05-30T10:52:18,185  INFO ControlerListenerManagerImpl:161 calling notifyIterationEnds on org.matsim.core.scoring.PlansScoringImpl
2024-05-30T10:52:18,197  INFO ControlerListenerManagerImpl:168 calling notifyIterationEnds on org.matsim.counts.CountsControlerListener
2024-05-30T10:52:18,197  INFO ControlerListenerManagerImpl:168 calling notifyIterationEnds on org.matsim.analysis.ModeStatsControlerListener
2024-05-30T10:52:18,301  INFO ModeStatsControlerListener:145 Mode shares over all 49976.0 trips found. MainModeIdentifier: class org.matsim.core.router.RoutingModeMainModeIdentifier
2024-05-30T10:52:18,301  INFO ModeStatsControlerListener:152 -- mode share of mode car = 1.0
2024-05-30T10:52:18,305  INFO ControlerListenerManagerImpl:168 calling notifyIterationEnds on org.matsim.analysis.ScoreStatsControlerListener
2024-05-30T10:52:18,320  INFO ScoreStatsControlerListener:182 -- avg. score of the executed plan of each agent: 141.8742363065116
2024-05-30T10:52:18,320  INFO ScoreStatsControlerListener:183 -- avg. score of the worst plan of each agent: 141.8742363065116
2024-05-30T10:52:18,320  INFO ScoreStatsControlerListener:184 -- avg. of the avg. plan score per agent: 141.8742363065116
2024-05-30T10:52:18,320  INFO ScoreStatsControlerListener:185 -- avg. score of the best plan of each agent: 141.8742363065116
2024-05-30T10:52:18,328  INFO ControlerListenerManagerImpl:168 calling notifyIterationEnds on org.matsim.analysis.IterationTravelStatsControlerListener
2024-05-30T10:52:18,393  INFO TravelDistanceStats:144 -- average leg distance per plan (executed plans only): 0.0 meters
2024-05-30T10:52:18,394  INFO TravelDistanceStats:145 average leg distance per Person (executed plans only): 0.0 meters (statistic on all 49976 legs which have a finite distance)
2024-05-30T10:52:18,394  INFO TravelDistanceStats:146 -- average trip distance per plan (executed plans only): 0.0 meters
2024-05-30T10:52:18,394  INFO TravelDistanceStats:147 average trip distance per Person (executed plans only): 0.0 meters (statistic on all 49976 trips which have a finite distance)
2024-05-30T10:52:18,394  INFO TravelDistanceStats:148 (TravelDistanceStats takes an average over all legs where the simulation reports travelled (network) distances
2024-05-30T10:52:18,394  INFO TravelDistanceStats:149 (and teleported legs whose route contains a distance.)
2024-05-30T10:52:20,360  INFO ControlerListenerManagerImpl:168 calling notifyIterationEnds on org.matsim.analysis.LegHistogramListener
2024-05-30T10:52:20,370  INFO LegHistogramListener:73 number of legs:	49976	100%
2024-05-30T10:52:20,371  INFO LegHistogramListener:80 number of car legs:	49976	100.0%
2024-05-30T10:52:20,559  INFO ControlerListenerManagerImpl:168 calling notifyIterationEnds on org.matsim.analysis.LinkStatsControlerListener
2024-05-30T10:52:20,560  INFO ControlerListenerManagerImpl:172 [it.0] all ControlerIterationEndsListeners called.
2024-05-30T10:52:20,652  INFO AbstractController:182 ### ITERATION 0 ENDS
2024-05-30T10:52:20,652  INFO AbstractController:183 ###################################################
2024-05-30T10:52:20,652  INFO AbstractController:134 ###################################################
2024-05-30T10:52:20,652  INFO AbstractController:135 ### ITERATION 1 BEGINS
2024-05-30T10:52:20,653  INFO ControlerListenerManagerImpl:146 calling notifyIterationStarts on org.matsim.analysis.LegHistogramListener
2024-05-30T10:52:20,653  INFO ControlerListenerManagerImpl:146 calling notifyIterationStarts on org.matsim.analysis.LinkStatsControlerListener
2024-05-30T10:52:20,653  INFO ControlerListenerManagerImpl:146 calling notifyIterationStarts on org.matsim.core.replanning.ReplanningContextImpl
2024-05-30T10:52:20,653  INFO ControlerListenerManagerImpl:146 calling notifyIterationStarts on org.matsim.core.scoring.ScoringFunctionsForPopulation$$Lambda$238/0x0000000801335310
2024-05-30T10:52:20,679  INFO ControlerListenerManagerImpl:146 calling notifyIterationStarts on org.matsim.core.scoring.ExperiencedPlansServiceImpl$1
2024-05-30T10:52:20,683  INFO ControlerListenerManagerImpl:149 [it.1] all ControlerIterationStartsListeners called.
2024-05-30T10:52:20,684  INFO ControlerListenerManagerImpl:206 calling notifyReplanning on org.matsim.core.controler.corelisteners.PlansReplanningImpl
2024-05-30T10:52:20,686  WARN ExpBetaPlanChanger:102 Would make sense to revise this once more.  See comments in code.  kai, nov08
2024-05-30T10:52:20,704  INFO GenericPlanStrategyImpl:127 Plan-Strategy finished, 24988 plans handled. Strategy: ExpBetaPlanChanger
2024-05-30T10:52:20,706  INFO ControlerListenerManagerImpl:214 [it.1] all ControlerReplanningListeners called.
2024-05-30T10:52:20,706  INFO ControlerListenerManagerImpl:225 calling notifyBeforeMobsim on org.matsim.core.controler.corelisteners.EventsHandlingImpl
2024-05-30T10:52:20,706  INFO EventsManagerImpl:168 resetting Event-Handlers
2024-05-30T10:52:20,706  INFO EventsManagerImpl:175   org.matsim.core.trafficmonitoring.TravelTimeCalculator
2024-05-30T10:52:20,706  INFO EventsManagerImpl:175   org.matsim.analysis.VolumesAnalyzer
2024-05-30T10:52:20,707  INFO EventsManagerImpl:175   org.matsim.core.scoring.ScoringFunctionsForPopulation
2024-05-30T10:52:20,709  INFO EventsManagerImpl:175   org.matsim.analysis.LegHistogram
2024-05-30T10:52:20,709  INFO EventsManagerImpl:175   org.matsim.analysis.CalcLegTimes
2024-05-30T10:52:20,710  INFO ControlerListenerManagerImpl:225 calling notifyBeforeMobsim on org.matsim.core.controler.corelisteners.PlansDumpingImpl
2024-05-30T10:52:20,710  INFO PlansDumpingImpl:77 dumping plans...
2024-05-30T10:52:20,725  INFO Counter:70 [PopulationWriter] dumped person # 1
2024-05-30T10:52:20,726  INFO Counter:70 [PopulationWriter] dumped person # 2
2024-05-30T10:52:20,726  INFO Counter:70 [PopulationWriter] dumped person # 4
2024-05-30T10:52:20,726  INFO Counter:70 [PopulationWriter] dumped person # 8
2024-05-30T10:52:20,726  INFO Counter:70 [PopulationWriter] dumped person # 16
2024-05-30T10:52:20,727  INFO Counter:70 [PopulationWriter] dumped person # 32
2024-05-30T10:52:20,728  INFO Counter:70 [PopulationWriter] dumped person # 64
2024-05-30T10:52:20,731  INFO Counter:70 [PopulationWriter] dumped person # 128
2024-05-30T10:52:20,735  INFO Counter:70 [PopulationWriter] dumped person # 256
2024-05-30T10:52:20,744  INFO Counter:70 [PopulationWriter] dumped person # 512
2024-05-30T10:52:20,766  INFO Counter:70 [PopulationWriter] dumped person # 1024
2024-05-30T10:52:20,800  INFO Counter:70 [PopulationWriter] dumped person # 2048
2024-05-30T10:52:20,887  INFO Counter:70 [PopulationWriter] dumped person # 4096
2024-05-30T10:52:21,039  INFO Counter:70 [PopulationWriter] dumped person # 8192
2024-05-30T10:52:21,237  INFO Counter:70 [PopulationWriter] dumped person # 16384
2024-05-30T10:52:21,458  INFO PopulationWriter:145 Population written to: ./output/ITERS/it.1/1.plans.xml.gz
2024-05-30T10:52:21,458  INFO Counter:75 [PopulationWriter] dumped person # 24988
2024-05-30T10:52:21,458  INFO PlansDumpingImpl:94 finished plans dump.
2024-05-30T10:52:21,458  INFO ControlerListenerManagerImpl:230 calling notifyBeforeMobsim on org.matsim.core.population.VspPlansCleaner
2024-05-30T10:52:21,490  INFO ControlerListenerManagerImpl:233 [it.1] all ControlerBeforeMobsimListeners called.
2024-05-30T10:52:21,503  INFO RandomizingTimeDistanceTravelDisutilityFactory:86  sigma: 3.0; resulting normalization: 0.011108996538242306
2024-05-30T10:52:21,513  INFO RandomizingTimeDistanceTravelDisutilityFactory:86  sigma: 3.0; resulting normalization: 0.011108996538242306
2024-05-30T10:52:21,525  INFO Counter:70 [PersonPrepareForSim] handled person # 2
2024-05-30T10:52:21,525  INFO Counter:70 [PersonPrepareForSim] handled person # 1
2024-05-30T10:52:21,526  INFO Counter:70 [PersonPrepareForSim] handled person # 4
2024-05-30T10:52:21,526  INFO Counter:70 [PersonPrepareForSim] handled person # 16
2024-05-30T10:52:21,526  INFO Counter:70 [PersonPrepareForSim] handled person # 8
2024-05-30T10:52:21,526  INFO Counter:70 [PersonPrepareForSim] handled person # 32
2024-05-30T10:52:21,526  INFO Counter:70 [PersonPrepareForSim] handled person # 64
2024-05-30T10:52:21,526  INFO Counter:70 [PersonPrepareForSim] handled person # 128
2024-05-30T10:52:21,526  INFO Counter:70 [PersonPrepareForSim] handled person # 256
2024-05-30T10:52:21,526  INFO Counter:70 [PersonPrepareForSim] handled person # 512
2024-05-30T10:52:21,526  INFO Counter:70 [PersonPrepareForSim] handled person # 1024
2024-05-30T10:52:21,527  INFO Counter:70 [PersonPrepareForSim] handled person # 2048
2024-05-30T10:52:21,528  INFO Counter:70 [PersonPrepareForSim] handled person # 4096
2024-05-30T10:52:21,531  INFO Counter:70 [PersonPrepareForSim] handled person # 8192
2024-05-30T10:52:21,535  INFO Counter:70 [PersonPrepareForSim] handled person # 16384
2024-05-30T10:52:21,540  INFO Counter:75 [PersonPrepareForSim] handled person # 24988
2024-05-30T10:52:21,563  INFO MobsimListenerManager:50 calling addQueueSimulationListener
2024-05-30T10:52:21,563  INFO MobsimListenerManager:54   assigned class org.matsim.core.mobsim.framework.listeners.MobsimListener to interface org.matsim.vis.snapshotwriters.SnapshotWriterManager
2024-05-30T10:52:21,563  INFO MobsimListenerManager:54   assigned class org.matsim.core.mobsim.framework.listeners.MobsimListener to interface org.matsim.core.mobsim.framework.listeners.MobsimListener
2024-05-30T10:52:21,565  INFO MobsimListenerManager:54   assigned class org.matsim.core.mobsim.framework.listeners.MobsimListener to interface org.matsim.core.mobsim.framework.listeners.MobsimAfterSimStepListener
2024-05-30T10:52:21,565  INFO MobsimListenerManager:54   assigned class org.matsim.core.mobsim.framework.listeners.MobsimListener to interface org.matsim.core.mobsim.framework.listeners.MobsimBeforeCleanupListener
2024-05-30T10:52:21,565  INFO MobsimListenerManager:54   assigned class org.matsim.core.mobsim.framework.listeners.MobsimListener to interface org.matsim.core.mobsim.framework.listeners.MobsimInitializedListener
[...]
2024-05-30T10:52:41,671  INFO Counter:70 [PopulationWriter] dumped person # 16
2024-05-30T10:52:41,672  INFO Counter:70 [PopulationWriter] dumped person # 32
2024-05-30T10:52:41,672  INFO Counter:70 [PopulationWriter] dumped person # 64
2024-05-30T10:52:41,674  INFO Counter:70 [PopulationWriter] dumped person # 128
2024-05-30T10:52:41,676  INFO Counter:70 [PopulationWriter] dumped person # 256
2024-05-30T10:52:41,682  INFO Counter:70 [PopulationWriter] dumped person # 512
2024-05-30T10:52:41,692  INFO Counter:70 [PopulationWriter] dumped person # 1024
2024-05-30T10:52:41,711  INFO Counter:70 [PopulationWriter] dumped person # 2048
2024-05-30T10:52:41,749  INFO Counter:70 [PopulationWriter] dumped person # 4096
2024-05-30T10:52:41,839  INFO Counter:70 [PopulationWriter] dumped person # 8192
2024-05-30T10:52:42,002  INFO Counter:70 [PopulationWriter] dumped person # 16384
2024-05-30T10:52:42,170  INFO PopulationWriter:145 Population written to: ./output/ITERS/it.5/5.plans.xml.gz
2024-05-30T10:52:42,170  INFO Counter:75 [PopulationWriter] dumped person # 24988
2024-05-30T10:52:42,170  INFO PlansDumpingImpl:94 finished plans dump.
2024-05-30T10:52:42,170  INFO ControlerListenerManagerImpl:230 calling notifyBeforeMobsim on org.matsim.core.population.VspPlansCleaner
2024-05-30T10:52:42,178  INFO ControlerListenerManagerImpl:233 [it.5] all ControlerBeforeMobsimListeners called.
2024-05-30T10:52:42,204  INFO Counter:70 [PersonPrepareForSim] handled person # 2
2024-05-30T10:52:42,204  INFO Counter:70 [PersonPrepareForSim] handled person # 4
2024-05-30T10:52:42,204  INFO Counter:70 [PersonPrepareForSim] handled person # 8
2024-05-30T10:52:42,204  INFO Counter:70 [PersonPrepareForSim] handled person # 16
2024-05-30T10:52:42,204  INFO Counter:70 [PersonPrepareForSim] handled person # 32
2024-05-30T10:52:42,204  INFO Counter:70 [PersonPrepareForSim] handled person # 64
2024-05-30T10:52:42,204  INFO Counter:70 [PersonPrepareForSim] handled person # 128
2024-05-30T10:52:42,205  INFO Counter:70 [PersonPrepareForSim] handled person # 256
2024-05-30T10:52:42,204  INFO Counter:70 [PersonPrepareForSim] handled person # 1
2024-05-30T10:52:42,205  INFO Counter:70 [PersonPrepareForSim] handled person # 512
2024-05-30T10:52:42,205  INFO Counter:70 [PersonPrepareForSim] handled person # 1024
2024-05-30T10:52:42,206  INFO Counter:70 [PersonPrepareForSim] handled person # 2048
2024-05-30T10:52:42,207  INFO Counter:70 [PersonPrepareForSim] handled person # 4096
2024-05-30T10:52:42,210  INFO Counter:70 [PersonPrepareForSim] handled person # 8192
2024-05-30T10:52:42,214  INFO Counter:70 [PersonPrepareForSim] handled person # 16384
2024-05-30T10:52:42,220  INFO Counter:75 [PersonPrepareForSim] handled person # 24988
2024-05-30T10:52:42,231  INFO MobsimListenerManager:50 calling addQueueSimulationListener
2024-05-30T10:52:42,231  INFO MobsimListenerManager:54   assigned class org.matsim.core.mobsim.framework.listeners.MobsimListener to interface org.matsim.vis.snapshotwriters.SnapshotWriterManager
2024-05-30T10:52:42,231  INFO MobsimListenerManager:54   assigned class org.matsim.core.mobsim.framework.listeners.MobsimListener to interface org.matsim.core.mobsim.framework.listeners.MobsimListener
2024-05-30T10:52:42,231  INFO MobsimListenerManager:54   assigned class org.matsim.core.mobsim.framework.listeners.MobsimListener to interface org.matsim.core.mobsim.framework.listeners.MobsimAfterSimStepListener
2024-05-30T10:52:42,231  INFO MobsimListenerManager:54   assigned class org.matsim.core.mobsim.framework.listeners.MobsimListener to interface org.matsim.core.mobsim.framework.listeners.MobsimBeforeCleanupListener
2024-05-30T10:52:42,231  INFO MobsimListenerManager:54   assigned class org.matsim.core.mobsim.framework.listeners.MobsimListener to interface org.matsim.core.mobsim.framework.listeners.MobsimInitializedListener
2024-05-30T10:52:42,624  INFO QSimProvider:131 Added MobsimEngine class org.matsim.core.mobsim.qsim.ActivityEngineDefaultImpl
2024-05-30T10:52:42,624  INFO QSimProvider:137 Added Activityhandler class org.matsim.core.mobsim.qsim.ActivityEngineDefaultImpl
2024-05-30T10:52:42,624  INFO QSimProvider:143 Added DepartureHandler class org.matsim.core.mobsim.qsim.qnetsimengine.VehicularDepartureHandler
2024-05-30T10:52:42,624  INFO QSimProvider:131 Added MobsimEngine class org.matsim.core.mobsim.qsim.qnetsimengine.QNetsimEngineWithThreadpool
2024-05-30T10:52:42,624  INFO QSimProvider:131 Added MobsimEngine class org.matsim.core.mobsim.qsim.DefaultTeleportationEngine
2024-05-30T10:52:42,624  INFO QSimProvider:143 Added DepartureHandler class org.matsim.core.mobsim.qsim.DefaultTeleportationEngine
2024-05-30T10:52:42,624  INFO QSimProvider:149 Added AgentSource class org.matsim.core.mobsim.qsim.agents.PopulationAgentSource
2024-05-30T10:52:42,624  INFO MobsimListenerManager:50 calling addQueueSimulationListener
2024-05-30T10:52:42,624  INFO MobsimListenerManager:54   assigned class org.matsim.core.mobsim.framework.listeners.MobsimListener to interface org.matsim.core.mobsim.framework.listeners.MobsimListener
2024-05-30T10:52:42,624  INFO MobsimListenerManager:54   assigned class org.matsim.core.mobsim.framework.listeners.MobsimListener to interface org.matsim.core.mobsim.qsim.messagequeueengine.MessageQueueEngine
2024-05-30T10:52:42,624  INFO MobsimListenerManager:54   assigned class org.matsim.core.mobsim.framework.listeners.MobsimListener to interface org.matsim.core.mobsim.framework.listeners.MobsimBeforeSimStepListener
2024-05-30T10:52:42,624  INFO QSimProvider:155 Added MobsimListener class org.matsim.core.mobsim.qsim.messagequeueengine.MessageQueueEngine
2024-05-30T10:52:42,746  INFO AbstractQNetsimEngine:428 Assigned 106802 nodes and 242617 links to QSimEngineRunner #0
2024-05-30T10:52:42,984  INFO AbstractQNetsimEngine:366 SIMULATION (QNetsimEngine) AT 08:00:00 : #links=0 #nodes=0
2024-05-30T10:52:42,984  INFO QSim:566 SIMULATION (NEW QSim) AT 08:00:00 : #Veh=24988 lost=0 simT=0.0s realT=0s; (s/r): 0.0
2024-05-30T10:52:44,023  INFO AbstractQNetsimEngine:366 SIMULATION (QNetsimEngine) AT 09:00:00 : #links=0 #nodes=0
2024-05-30T10:52:44,024  INFO QSim:566 SIMULATION (NEW QSim) AT 09:00:00 : #Veh=24988 lost=0 simT=3600.0s realT=1s; (s/r): 3600.0
2024-05-30T10:52:44,316  INFO AbstractQNetsimEngine:366 SIMULATION (QNetsimEngine) AT 10:00:00 : #links=0 #nodes=0
2024-05-30T10:52:44,316  INFO QSim:566 SIMULATION (NEW QSim) AT 10:00:00 : #Veh=24988 lost=0 simT=7200.0s realT=2s; (s/r): 3600.0
2024-05-30T10:52:44,601  INFO AbstractQNetsimEngine:366 SIMULATION (QNetsimEngine) AT 11:00:00 : #links=0 #nodes=0
2024-05-30T10:52:44,601  INFO QSim:566 SIMULATION (NEW QSim) AT 11:00:00 : #Veh=24988 lost=0 simT=10800.0s realT=2s; (s/r): 5400.0
2024-05-30T10:52:44,890  INFO AbstractQNetsimEngine:366 SIMULATION (QNetsimEngine) AT 12:00:00 : #links=0 #nodes=0
2024-05-30T10:52:44,890  INFO QSim:566 SIMULATION (NEW QSim) AT 12:00:00 : #Veh=24988 lost=0 simT=14400.0s realT=2s; (s/r): 7200.0
2024-05-30T10:52:45,184  INFO AbstractQNetsimEngine:366 SIMULATION (QNetsimEngine) AT 13:00:00 : #links=0 #nodes=0
2024-05-30T10:52:45,184  INFO QSim:566 SIMULATION (NEW QSim) AT 13:00:00 : #Veh=24988 lost=0 simT=18000.0s realT=2s; (s/r): 9000.0
2024-05-30T10:52:45,471  INFO AbstractQNetsimEngine:366 SIMULATION (QNetsimEngine) AT 14:00:00 : #links=0 #nodes=0
2024-05-30T10:52:45,471  INFO QSim:566 SIMULATION (NEW QSim) AT 14:00:00 : #Veh=24988 lost=0 simT=21600.0s realT=3s; (s/r): 7200.0
2024-05-30T10:52:45,766  INFO AbstractQNetsimEngine:366 SIMULATION (QNetsimEngine) AT 15:00:00 : #links=0 #nodes=0
2024-05-30T10:52:45,766  INFO QSim:566 SIMULATION (NEW QSim) AT 15:00:00 : #Veh=24988 lost=0 simT=25200.0s realT=3s; (s/r): 8400.0
2024-05-30T10:52:46,046  INFO AbstractQNetsimEngine:366 SIMULATION (QNetsimEngine) AT 16:00:00 : #links=0 #nodes=0
2024-05-30T10:52:46,046  INFO QSim:566 SIMULATION (NEW QSim) AT 16:00:00 : #Veh=24988 lost=0 simT=28800.0s realT=3s; (s/r): 9600.0
2024-05-30T10:52:46,330  INFO AbstractQNetsimEngine:366 SIMULATION (QNetsimEngine) AT 17:00:00 : #links=0 #nodes=0
2024-05-30T10:52:46,330  INFO QSim:566 SIMULATION (NEW QSim) AT 17:00:00 : #Veh=24988 lost=0 simT=32400.0s realT=4s; (s/r): 8100.0
2024-05-30T10:52:47,382  INFO AbstractController$9:235 ### ITERATION 5 fires after mobsim event
2024-05-30T10:52:47,382  INFO Gbl:192 Thread performance: Thread=class org.matsim.core.events.SimStepParallelEventsManagerImpl$ProcessEventsRunnable0  cpu-time=1.421875sec
2024-05-30T10:52:47,383  INFO ControlerListenerManagerImpl:249 calling notifyAfterMobsim on org.matsim.analysis.LegTimesControlerListener
2024-05-30T10:52:47,385  INFO LegTimesControlerListener:51 [5] average trip (probably: leg) duration is: 0 seconds = 00:00:00
2024-05-30T10:52:47,385  INFO ControlerListenerManagerImpl:249 calling notifyAfterMobsim on org.matsim.core.events.MobsimScopeEventHandling
2024-05-30T10:52:47,385  INFO ControlerListenerManagerImpl:249 calling notifyAfterMobsim on org.matsim.core.scoring.EventsToActivities$1
2024-05-30T10:52:47,403  INFO ControlerListenerManagerImpl:252 [it.5] all ControlerAfterMobsimListeners called.
2024-05-30T10:52:47,404  INFO AbstractController$4:160 ### ITERATION 5 fires scoring event
2024-05-30T10:52:47,404  INFO ControlerListenerManagerImpl:184 calling notifyScoring on org.matsim.core.scoring.PlansScoringImpl
2024-05-30T10:52:47,416  INFO NewScoreAssignerImpl:58 it: 5 msaStart: null
2024-05-30T10:52:47,428  INFO ControlerListenerManagerImpl:195 [it.5] all ControlerScoringListeners called.
2024-05-30T10:52:47,428  INFO AbstractController$5:168 ### ITERATION 5 fires iteration end event
2024-05-30T10:52:47,428  INFO ControlerListenerManagerImpl:161 calling notifyIterationEnds on org.matsim.core.controler.corelisteners.EventsHandlingImpl
2024-05-30T10:52:47,429  INFO EventsManagerImpl:159 removing Event-Handler: org.matsim.core.events.algorithms.EventWriterXML
2024-05-30T10:52:47,430  INFO EventsManagerImpl:159 removing Event-Handler: org.matsim.core.events.algorithms.EventWriterXML
2024-05-30T10:52:47,430  INFO ControlerListenerManagerImpl:161 calling notifyIterationEnds on org.matsim.core.scoring.PlansScoringImpl
2024-05-30T10:52:47,439  INFO ControlerListenerManagerImpl:168 calling notifyIterationEnds on org.matsim.counts.CountsControlerListener
2024-05-30T10:52:47,440  INFO ControlerListenerManagerImpl:168 calling notifyIterationEnds on org.matsim.analysis.ModeStatsControlerListener
2024-05-30T10:52:47,455  INFO ModeStatsControlerListener:145 Mode shares over all 49976.0 trips found. MainModeIdentifier: class org.matsim.core.router.RoutingModeMainModeIdentifier
2024-05-30T10:52:47,456  INFO ModeStatsControlerListener:152 -- mode share of mode car = 1.0
2024-05-30T10:52:47,536  INFO ControlerListenerManagerImpl:168 calling notifyIterationEnds on org.matsim.analysis.ScoreStatsControlerListener
2024-05-30T10:52:47,538  INFO ScoreStatsControlerListener:182 -- avg. score of the executed plan of each agent: 141.8742363065116
2024-05-30T10:52:47,538  INFO ScoreStatsControlerListener:183 -- avg. score of the worst plan of each agent: 141.8742363065116
2024-05-30T10:52:47,538  INFO ScoreStatsControlerListener:184 -- avg. of the avg. plan score per agent: 141.8742363065116
2024-05-30T10:52:47,538  INFO ScoreStatsControlerListener:185 -- avg. score of the best plan of each agent: 141.8742363065116
2024-05-30T10:52:47,573  INFO ControlerListenerManagerImpl:168 calling notifyIterationEnds on org.matsim.analysis.IterationTravelStatsControlerListener
2024-05-30T10:52:47,586  INFO TravelDistanceStats:144 -- average leg distance per plan (executed plans only): 0.0 meters
2024-05-30T10:52:47,586  INFO TravelDistanceStats:145 average leg distance per Person (executed plans only): 0.0 meters (statistic on all 49976 legs which have a finite distance)
2024-05-30T10:52:47,586  INFO TravelDistanceStats:146 -- average trip distance per plan (executed plans only): 0.0 meters
2024-05-30T10:52:47,586  INFO TravelDistanceStats:147 average trip distance per Person (executed plans only): 0.0 meters (statistic on all 49976 trips which have a finite distance)
2024-05-30T10:52:47,586  INFO TravelDistanceStats:148 (TravelDistanceStats takes an average over all legs where the simulation reports travelled (network) distances
2024-05-30T10:52:47,586  INFO TravelDistanceStats:149 (and teleported legs whose route contains a distance.)
2024-05-30T10:52:48,626  INFO ControlerListenerManagerImpl:168 calling notifyIterationEnds on org.matsim.analysis.LegHistogramListener
2024-05-30T10:52:48,628  INFO LegHistogramListener:73 number of legs:	49976	100%
2024-05-30T10:52:48,628  INFO LegHistogramListener:80 number of car legs:	49976	100.0%
2024-05-30T10:52:48,751  INFO ControlerListenerManagerImpl:168 calling notifyIterationEnds on org.matsim.analysis.LinkStatsControlerListener
2024-05-30T10:52:48,751  INFO ControlerListenerManagerImpl:172 [it.5] all ControlerIterationEndsListeners called.
2024-05-30T10:52:48,809  INFO AbstractController:182 ### ITERATION 5 ENDS
2024-05-30T10:52:48,809  INFO AbstractController:183 ###################################################
2024-05-30T10:52:48,809  INFO MatsimRuntimeModifications:80 S H U T D O W N   ---   start shutdown.
2024-05-30T10:52:48,811  INFO ControlerListenerManagerImpl:122 calling notifyShutdown on org.matsim.core.controler.corelisteners.EventsHandlingImpl
2024-05-30T10:52:48,811  INFO ControlerListenerManagerImpl:122 calling notifyShutdown on org.matsim.core.controler.corelisteners.DumpDataAtEndImpl
2024-05-30T10:52:48,823  INFO Counter:70 [PopulationWriter] dumped person # 1
2024-05-30T10:52:48,823  INFO Counter:70 [PopulationWriter] dumped person # 2
2024-05-30T10:52:48,824  INFO Counter:70 [PopulationWriter] dumped person # 4
2024-05-30T10:52:48,824  INFO Counter:70 [PopulationWriter] dumped person # 8
2024-05-30T10:52:48,824  INFO Counter:70 [PopulationWriter] dumped person # 16
2024-05-30T10:52:48,825  INFO Counter:70 [PopulationWriter] dumped person # 32
2024-05-30T10:52:48,826  INFO Counter:70 [PopulationWriter] dumped person # 64
2024-05-30T10:52:48,828  INFO Counter:70 [PopulationWriter] dumped person # 128
2024-05-30T10:52:48,833  INFO Counter:70 [PopulationWriter] dumped person # 256
2024-05-30T10:52:48,841  INFO Counter:70 [PopulationWriter] dumped person # 512
2024-05-30T10:52:48,858  INFO Counter:70 [PopulationWriter] dumped person # 1024
2024-05-30T10:52:48,889  INFO Counter:70 [PopulationWriter] dumped person # 2048
2024-05-30T10:52:48,948  INFO Counter:70 [PopulationWriter] dumped person # 4096
2024-05-30T10:52:49,057  INFO Counter:70 [PopulationWriter] dumped person # 8192
2024-05-30T10:52:49,218  INFO Counter:70 [PopulationWriter] dumped person # 16384
2024-05-30T10:52:49,387  INFO PopulationWriter:145 Population written to: ./output/output_plans.xml.gz
2024-05-30T10:52:49,387  INFO Counter:75 [PopulationWriter] dumped person # 24988
2024-05-30T10:52:49,400  INFO NetworkWriter:70 Writing network to file: ./output/output_network.xml.gz...
2024-05-30T10:52:51,507  INFO NetworkWriter:73 done.
2024-05-30T10:52:51,514  INFO Config:602 setting context to [file:/C:/Users/THAO/Desktop/matsim-example-project/]
2024-05-30T10:52:51,518  INFO Config:602 setting context to [file:/C:/Users/THAO/Desktop/matsim-example-project/]
2024-05-30T10:52:51,520  INFO Config:602 setting context to [file:/C:/Users/THAO/Desktop/matsim-example-project/]
2024-05-30T10:52:51,521  INFO Config:602 setting context to [file:/C:/Users/THAO/Desktop/matsim-example-project/]
2024-05-30T10:52:51,522  INFO Config:602 setting context to [file:/C:/Users/THAO/Desktop/matsim-example-project/]
2024-05-30T10:52:51,525  INFO Config:602 setting context to [file:/C:/Users/THAO/Desktop/matsim-example-project/]
2024-05-30T10:52:51,529  INFO Config:602 setting context to [file:/C:/Users/THAO/Desktop/matsim-example-project/]
2024-05-30T10:52:51,530  INFO Config:602 setting context to [file:/C:/Users/THAO/Desktop/matsim-example-project/]
2024-05-30T10:52:51,532  INFO Config:602 setting context to [file:/C:/Users/THAO/Desktop/matsim-example-project/]
2024-05-30T10:52:51,533  INFO Config:602 setting context to [file:/C:/Users/THAO/Desktop/matsim-example-project/]
2024-05-30T10:52:51,534  INFO Config:602 setting context to [file:/C:/Users/THAO/Desktop/matsim-example-project/]
2024-05-30T10:52:51,535  INFO Config:602 setting context to [file:/C:/Users/THAO/Desktop/matsim-example-project/]
2024-05-30T10:52:51,537  INFO Config:602 setting context to [file:/C:/Users/THAO/Desktop/matsim-example-project/]
2024-05-30T10:52:51,538  INFO Config:602 setting context to [file:/C:/Users/THAO/Desktop/matsim-example-project/]
2024-05-30T10:52:51,546  INFO Config:602 setting context to [file:/C:/Users/THAO/Desktop/matsim-example-project/]
2024-05-30T10:52:51,548  INFO Config:602 setting context to [file:/C:/Users/THAO/Desktop/matsim-example-project/]
2024-05-30T10:52:51,552  WARN PlansCalcRouteConfigGroup:378 The first mode routing (= teleported mode) params that are explicitly defined clear the default mode routing (= teleported mode) params.  If you want to avoid this 
2024-05-30T10:52:51,552  WARN PlansCalcRouteConfigGroup:379     warning, use clearTeleportedModeParams(true) in code, and "clearDefaultTeleportedModeParams"=true in xml config.
2024-05-30T10:52:51,552  INFO Config:602 setting context to [file:/C:/Users/THAO/Desktop/matsim-example-project/]
2024-05-30T10:52:51,554  INFO Config:602 setting context to [file:/C:/Users/THAO/Desktop/matsim-example-project/]
2024-05-30T10:52:51,556  INFO Config:602 setting context to [file:/C:/Users/THAO/Desktop/matsim-example-project/]
2024-05-30T10:52:51,557  INFO Config:602 setting context to [file:/C:/Users/THAO/Desktop/matsim-example-project/]
2024-05-30T10:52:51,558  INFO Config:602 setting context to [file:/C:/Users/THAO/Desktop/matsim-example-project/]
2024-05-30T10:52:51,559  INFO Config:602 setting context to [file:/C:/Users/THAO/Desktop/matsim-example-project/]
2024-05-30T10:52:51,561  INFO Config:602 setting context to [file:/C:/Users/THAO/Desktop/matsim-example-project/]
2024-05-30T10:52:51,562  INFO Config:602 setting context to [file:/C:/Users/THAO/Desktop/matsim-example-project/]
2024-05-30T10:52:51,564  INFO Config:602 setting context to [file:/C:/Users/THAO/Desktop/matsim-example-project/]
2024-05-30T10:52:51,565  INFO Config:602 setting context to [file:/C:/Users/THAO/Desktop/matsim-example-project/]
2024-05-30T10:52:51,572  INFO MatsimVehicleWriter:55 about to write vehicles to: ./output/output_vehicles.xml.gz
2024-05-30T10:52:51,572  INFO VehicleWriterV2:64 about to write vehicles to: ./output/output_vehicles.xml.gz
2024-05-30T10:52:51,645  INFO MatsimVehicleWriter:55 about to write vehicles to: ./output/output_allVehicles.xml.gz
2024-05-30T10:52:51,645  INFO VehicleWriterV2:64 about to write vehicles to: ./output/output_allVehicles.xml.gz
2024-05-30T10:52:51,697  INFO HouseholdsWriterV10:67 about to write  households to: ./output/output_households.xml.gz
2024-05-30T10:52:51,698  INFO Counter:75 [HouseholdsWriter] wrote household # 0
2024-05-30T10:52:51,721  INFO ControlerListenerManagerImpl:127 calling notifyShutdown on org.matsim.analysis.ScoreStatsControlerListener
2024-05-30T10:52:51,721  INFO ControlerListenerManagerImpl:127 calling notifyShutdown on org.matsim.analysis.IterationTravelStatsControlerListener
2024-05-30T10:52:51,721  INFO IterationTravelStatsControlerListener:109 Writing all Person and Attributes to personscsv
2024-05-30T10:52:51,864  INFO IterationTravelStatsControlerListener:153 ...done
2024-05-30T10:52:51,864  INFO ControlerListenerManagerImpl:130 all ControlerShutdownListeners called.
2024-05-30T10:52:51,864  INFO MatsimRuntimeModifications:103 S H U T D O W N   ---   shutdown completed.
2024-05-30T10:52:51,864  INFO OutputDirectoryLogging:171 closing the logfile, i.e. messages sent to the logger after this message are not written to the logfile.
