2024-05-13T12:53:40,186  INFO Gbl:64 JVM: 19.0.1; Oracle Corporation; mixed mode, sharing; 64-bit
2024-05-13T12:53:40,187  INFO Gbl:68 OS: Windows 11; 10.0; amd64
2024-05-13T12:53:40,188  INFO Gbl:71 CPU cores: 16
2024-05-13T12:53:40,192  INFO Gbl:72 max. Memory: 1842.0MB (1931476992B)
2024-05-13T12:53:40,193  INFO Gbl:110 MATSim-Build: ra76d70e12c1ca93f702007bdf2cc365001d5f50e (2023-04-12 08:36:22)
2024-05-13T12:53:40,197  INFO ControlerListenerManagerImpl:108 calling notifyStartup on org.matsim.core.controler.ControlerDefaultsModule$1
2024-05-13T12:53:40,205  INFO MemoryObserver:42 used RAM: 552 MB  free: 69 MB  total: 622 MB
2024-05-13T12:53:40,342  INFO ControlerListenerManagerImpl:108 calling notifyStartup on org.matsim.guice.DependencyGraphControlerListener
2024-05-13T12:53:40,501  INFO ControlerListenerManagerImpl:108 calling notifyStartup on org.matsim.counts.CountsControlerListener
2024-05-13T12:53:40,501  INFO ControlerListenerManagerImpl:108 calling notifyStartup on org.matsim.analysis.ModeStatsControlerListener
2024-05-13T12:53:40,501  INFO ControlerListenerManagerImpl:108 calling notifyStartup on org.matsim.analysis.ScoreStatsControlerListener
2024-05-13T12:53:40,503  INFO ControlerListenerManagerImpl:111 all ControlerStartupListeners called.
2024-05-13T12:53:40,504  INFO ControlerUtils:80 config dump before iterations start
2024-05-13T12:53:40,529  INFO ControlerUtils:84 

<?xml version="1.0" encoding="UTF-8"?>
<!DOCTYPE config SYSTEM "http://www.matsim.org/files/dtd/config_v2.dtd">
<config>
	<module name="JDEQSim" >
		<param name="carSize" value="7.5" />
		<param name="endTime" value="undefined" />
		<param name="flowCapacityFactor" value="1.0" />
		<param name="gapTravelSpeed" value="15.0" />
		<param name="minimumInFlowCapacity" value="1800.0" />
		<param name="squeezeTime" value="1800.0" />
		<param name="storageCapacityFactor" value="1.0" />
	</module>
	<module name="ReplanningAnnealer" >
		<!-- Activate the scaling of replanning modules using an annealing approach rather than fixed rates. -->
		<param name="activateAnnealingModule" value="false" />
	</module>
	<module name="TimeAllocationMutator" >
		<!-- Default:true; Defines whether time mutation changes an activity's duration. -->
		<param name="mutationAffectsDuration" value="true" />
		<!-- Default:1800.0; Defines how many seconds a time mutation can maximally shift a time. -->
		<param name="mutationRange" value="1800.0" />
	</module>
	<module name="changeMode" >
		<!-- Defines whether car availability is considered be considered or not. An agent has no car only if it has no license, or never access to a car. Default: true -->
		<param name="ignoreCarAvailability" value="true" />
		<!-- Defines the mode switch behavior. Possible values [fromAllModesToSpecifiedModes, fromSpecifiedModesToSpecifiedModes] Default: fromSpecifiedModesToSpecifiedModes. -->
		<param name="modeSwitchBehavior" value="fromSpecifiedModesToSpecifiedModes" />
		<!-- Defines all the modes available, including chain-based modes, seperated by commas -->
		<param name="modes" value="car,pt" />
	</module>
	<module name="controler" >
		<!-- Defines what should be done with the ITERS directory when a simulation finished successfully -->
		<param name="cleanItersAtEnd" value="keep" />
		<!-- Compression algorithm to use when writing out data to files. Possible values: [none, gzip, lz4, zst] -->
		<param name="compressionType" value="gzip" />
		<!-- Sets whether graphs showing some analyses should automatically be generated during the simulation. The generation of graphs usually takes a small amount of time that does not have any weight in big simulations, but add a significant overhead in smaller runs or in test cases where the graphical output is not even requested. -->
		<param name="createGraphs" value="true" />
		<!-- Defines when the scoring functions for the population are created. Default=IterationStarts. Possible values: [IterationStarts, BeforeMobsim] -->
		<param name="createScoringFunctionType" value="IterationStarts" />
		<!-- true if at the end of a run, plans, network, config etc should be dumped to a file -->
		<param name="dumpDataAtEnd" value="true" />
		<!-- Default=false. If enabled, the router takes travel times needed for turning moves into account. Cannot be used if the (Fast)AStarLandmarks routing or TravelTimeCalculator.separateModes is enabled. -->
		<param name="enableLinkToLinkRouting" value="false" />
		<!-- Default=xml; Specifies the file format for writing events. Currently supported: [xml, pb, json]
		Multiple values can be specified separated by commas (','). -->
		<param name="eventsFileFormat" value="xml" />
		<!-- Default=0. First Iteration of a simulation. -->
		<param name="firstIteration" value="0" />
		<!-- Default=1000. Last Iteration of a simulation. -->
		<param name="lastIteration" value="5" />
		<!-- Defines which mobility simulation will be used. Currently supported: qsim JDEQSim hermes 
		Depending on the chosen mobsim, you'll have to add additional config modules to configure the corresponding mobsim.
		For 'qsim', add a module 'qsim' to the config. -->
		<param name="mobsim" value="qsim" />
		<param name="outputDirectory" value="./output" />
		<!-- Possible values: failIfDirectoryExists,overwriteExistingFiles,deleteDirectoryIfExists -->
		<param name="overwriteFiles" value="deleteDirectoryIfExists" />
		<!-- The type of routing (least cost path) algorithm used, may have the values: [Dijkstra, AStarLandmarks, FastDijkstra, FastAStarLandmarks, SpeedyALT] -->
		<param name="routingAlgorithmType" value="AStarLandmarks" />
		<!-- An identifier for the current run which is used as prefix for output files and mentioned in output xml files etc. -->
		<param name="runId" value="null" />
		<!-- Comma-separated list of visualizer output file formats. `transims' and `otfvis'. -->
		<param name="snapshotFormat" value="" />
		<!-- iterationNumber % writeEventsInterval == 0 defines in which iterations events are written to a file. `0' disables events writing completely. -->
		<param name="writeEventsInterval" value="5" />
		<!-- iterationNumber % writePlansInterval == 0 defines (hopefully) in which iterations plans are written to a file. `0' disables plans writing completely.  Some plans in early iterations are always written -->
		<param name="writePlansInterval" value="5" />
		<!-- iterationNumber % writeSnapshotsInterval == 0 defines in which iterations snapshots are written to a file. `0' disables snapshots writing completely -->
		<param name="writeSnapshotsInterval" value="1" />
		<!-- iterationNumber % writeEventsInterval == 0 defines in which iterations trips CSV are written to a file. `0' disables trips writing completely. -->
		<param name="writeTripsInterval" value="50" />
	</module>
	<module name="counts" >
		<!-- Transport modes that will be respected for the counts comparison. 'car' is default, which includes also bussed from the pt simulation module. Use this parameter in combination with 'filterModes' = true! -->
		<param name="analyzedModes" value="car" />
		<!-- Specifies over how many iterations the link volumes should be averaged that are used for the counts comparison. Use 1 or 0 to only use the link volumes of a single iteration. This values cannot be larger than the value specified for writeCountsInterval -->
		<param name="averageCountsOverIterations" value="5" />
		<!-- factor by which to re-scale the simulated values.  necessary when simulation runs with something different from 100%.  needs to be adapted manually -->
		<param name="countsScaleFactor" value="1.0" />
		<!-- distance to distanceFilterCenterNode to include counting stations. The unit of distance is the Euclidean distance implied by the coordinate system -->
		<param name="distanceFilter" value="null" />
		<!-- node id for center node of distance filter -->
		<param name="distanceFilterCenterNode" value="null" />
		<!-- If true, link counts from legs performed on modes not included in the 'analyzedModes' parameter are ignored. -->
		<param name="filterModes" value="false" />
		<!-- The Coordinates Reference System in which the coordinates are expressed in the input file. At import, the coordinates will be converted to the coordinate system defined in "global", and willbe converted back at export. If not specified, no conversion happens. -->
		<param name="inputCRS" value="null" />
		<!-- input file name to counts package -->
		<param name="inputCountsFile" value="null" />
		<!-- possible values: `html', `txt', `all' -->
		<param name="outputformat" value="txt" />
		<!-- Specifies how often the counts comparison should be calculated and written. -->
		<param name="writeCountsInterval" value="10" />
	</module>
	<module name="facilities" >
		<!-- This defines how facilities should be created. Possible values: none fromFile setInScenario onePerActivityLinkInPlansFile onePerActivityLinkInPlansFileExceptWhenCoordinatesAreGiven onePerActivityLocationInPlansFile  -->
		<param name="facilitiesSource" value="none" />
		<!-- A prefix to be used for auto-generated IDs. -->
		<param name="idPrefix" value="f_auto_" />
		<!-- The Coordinates Reference System in which the coordinates are expressed in the input file. At import, the coordinates will be converted to the coordinate system defined in "global", and willbe converted back at export. If not specified, no conversion happens. -->
		<param name="inputCRS" value="null" />
		<param name="inputFacilitiesFile" value="null" />
		<param name="inputFacilityAttributesFile" value="null" />
		<param name="insistingOnUsingDeprecatedFacilitiesAttributeFile" value="false" />
	</module>
	<module name="global" >
		<param name="coordinateSystem" value="EPSG:4756" />
		<param name="defaultDelimiter" value=";" />
		<param name="insistingOnDeprecatedConfigVersion" value="true" />
		<!-- "global" number of threads.  This number is used, e.g., for replanning, but NOT in QSim.  This can typically be set to as many cores as you have available, or possibly even slightly more. -->
		<param name="numberOfThreads" value="2" />
		<param name="randomSeed" value="4711" />
	</module>
	<module name="hermes" >
		<!-- Simulation End Time -->
		<param name="endTime" value="30:00:00" />
		<param name="flowCapacityFactor" value="1.0" />
		<param name="mainMode" value="car" />
		<param name="storageCapacityFactor" value="1.0" />
		<!-- time in seconds.  Time after which the frontmost vehicle on a link is called `stuck' if it does not move. Set to Integer.MAX_VALUE to disable this behavior -->
		<param name="stuckTime" value="10" />
		<!-- treats PT as deterministic. PT vehicles will run with a steady speed. Should be used with separate network layers for PT and other network modes. -->
		<param name="useDeterministicPt" value="false" />
	</module>
	<module name="households" >
		<param name="inputFile" value="null" />
		<param name="inputHouseholdAttributesFile" value="null" />
		<param name="insistingOnUsingDeprecatedHouseholdsAttributeFile" value="false" />
	</module>
	<module name="linkStats" >
		<!-- Specifies over how many iterations the link volumes should be averaged that are used for the link statistics. Use 1 or 0 to only use the link volumes of a single iteration. This values cannot be larger than the value specified for writeLinkStatsInterval -->
		<param name="averageLinkStatsOverIterations" value="5" />
		<!-- Specifies how often the link stats should be calculated and written. Use 0 to disable the generation of link stats. -->
		<param name="writeLinkStatsInterval" value="50" />
	</module>
	<module name="network" >
		<!-- The Coordinates Reference System in which the coordinates are expressed in the input file. At import, the coordinates will be converted to the coordinate system defined in "global", and willbe converted back at export. If not specified, no conversion happens. -->
		<param name="inputCRS" value="null" />
		<param name="inputChangeEventsFile" value="null" />
		<param name="inputNetworkFile" value="saigon.xml" />
		<param name="laneDefinitionsFile" value="null" />
		<param name="timeVariantNetwork" value="false" />
	</module>
	<module name="parallelEventHandling" >
		<!-- Estimated number of events during mobsim run. An optional optimization hint for the framework. -->
		<param name="estimatedNumberOfEvents" value="null" />
		<!-- Size of the events Queue. Increase for very large scenarios -->
		<param name="eventsQueueSize" value="131072" />
		<!-- Number of threads for parallel events handler. _null_ means the framework decides by itself. 0 is currently not possible. -->
		<param name="numberOfThreads" value="null" />
		<!-- If enabled, each event handler is assigned to its own thread. Note that enabling this feature disabled the numberOfThreads option! This feature is still experimental! -->
		<param name="oneThreadPerHandler" value="false" />
		<!-- If enabled, it is ensured that all events that are created during a time step of the mobility simulation are processed before the next time step is simulated. E.g. neccessary when within-day replanning is used. -->
		<param name="synchronizeOnSimSteps" value="true" />
	</module>
	<module name="planCalcScore" >
		<!-- logit model scale parameter. default: 1.  Has name and default value for historical reasons (see Bryan Raney's phd thesis). -->
		<param name="BrainExpBeta" value="1.0" />
		<param name="PathSizeLogitBeta" value="1.0" />
		<!-- fraction of iterations at which MSA score averaging is started. The matsim theory department suggests to use this together with switching off choice set innovation (where a similar switch exists), but it has not been tested yet. -->
		<param name="fractionOfIterationsToStartScoreMSA" value="null" />
		<!-- new_score = (1-learningRate)*old_score + learningRate * score_from_mobsim.  learning rates close to zero emulate score averaging, but slow down initial convergence -->
		<param name="learningRate" value="1.0" />
		<!-- There used to be a plateau between duration=0 and duration=zeroUtilityDuration. This caused durations to evolve to zero once they were below zeroUtilityDuration, causing problems.  Only use this switch if you need to be backwards compatible with some old results.  (changed nov'13) -->
		<param name="usingOldScoringBelowZeroUtilityDuration" value="false" />
		<!-- write a plans file in each iteration directory which contains what each agent actually did, and the score it received. -->
		<param name="writeExperiencedPlans" value="false" />
		<parameterset type="scoringParameters" >
			<param name="earlyDeparture" value="-0.0" />
			<param name="lateArrival" value="-18.0" />
			<param name="marginalUtilityOfMoney" value="1.0" />
			<param name="performing" value="6.0" />
			<param name="subpopulation" value="null" />
			<param name="utilityOfLineSwitch" value="-1.0" />
			<param name="waiting" value="-0.0" />
			<param name="waitingPt" value="-6.0" />
			<parameterset type="activityParams" >
				<param name="activityType" value="dummy" />
				<param name="closingTime" value="undefined" />
				<param name="earliestEndTime" value="undefined" />
				<param name="latestStartTime" value="undefined" />
				<param name="minimalDuration" value="undefined" />
				<param name="openingTime" value="undefined" />
				<param name="priority" value="1.0" />
				<param name="scoringThisActivityAtAll" value="true" />
				<!-- typical duration of activity.  needs to be defined and non-zero.  in sec. -->
				<param name="typicalDuration" value="02:00:00" />
				<!-- method to compute score at typical duration.  Options: | uniform | relative | Use uniform for backwards compatibility (all activities same score; higher proba to drop long acts). -->
				<param name="typicalDurationScoreComputation" value="relative" />
			</parameterset>
			<parameterset type="activityParams" >
				<param name="activityType" value="car interaction" />
				<param name="closingTime" value="undefined" />
				<param name="earliestEndTime" value="undefined" />
				<param name="latestStartTime" value="undefined" />
				<param name="minimalDuration" value="undefined" />
				<param name="openingTime" value="undefined" />
				<param name="priority" value="1.0" />
				<param name="scoringThisActivityAtAll" value="false" />
				<param name="typicalDuration" value="undefined" />
				<param name="typicalDurationScoreComputation" value="relative" />
			</parameterset>
			<parameterset type="activityParams" >
				<param name="activityType" value="pt interaction" />
				<param name="closingTime" value="undefined" />
				<param name="earliestEndTime" value="undefined" />
				<param name="latestStartTime" value="undefined" />
				<param name="minimalDuration" value="undefined" />
				<param name="openingTime" value="undefined" />
				<param name="priority" value="1.0" />
				<param name="scoringThisActivityAtAll" value="false" />
				<param name="typicalDuration" value="undefined" />
				<param name="typicalDurationScoreComputation" value="relative" />
			</parameterset>
			<parameterset type="activityParams" >
				<param name="activityType" value="bike interaction" />
				<param name="closingTime" value="undefined" />
				<param name="earliestEndTime" value="undefined" />
				<param name="latestStartTime" value="undefined" />
				<param name="minimalDuration" value="undefined" />
				<param name="openingTime" value="undefined" />
				<param name="priority" value="1.0" />
				<param name="scoringThisActivityAtAll" value="false" />
				<param name="typicalDuration" value="undefined" />
				<param name="typicalDurationScoreComputation" value="relative" />
			</parameterset>
			<parameterset type="activityParams" >
				<param name="activityType" value="drt interaction" />
				<param name="closingTime" value="undefined" />
				<param name="earliestEndTime" value="undefined" />
				<param name="latestStartTime" value="undefined" />
				<param name="minimalDuration" value="undefined" />
				<param name="openingTime" value="undefined" />
				<param name="priority" value="1.0" />
				<param name="scoringThisActivityAtAll" value="false" />
				<param name="typicalDuration" value="undefined" />
				<param name="typicalDurationScoreComputation" value="relative" />
			</parameterset>
			<parameterset type="activityParams" >
				<param name="activityType" value="taxi interaction" />
				<param name="closingTime" value="undefined" />
				<param name="earliestEndTime" value="undefined" />
				<param name="latestStartTime" value="undefined" />
				<param name="minimalDuration" value="undefined" />
				<param name="openingTime" value="undefined" />
				<param name="priority" value="1.0" />
				<param name="scoringThisActivityAtAll" value="false" />
				<param name="typicalDuration" value="undefined" />
				<param name="typicalDurationScoreComputation" value="relative" />
			</parameterset>
			<parameterset type="activityParams" >
				<param name="activityType" value="other interaction" />
				<param name="closingTime" value="undefined" />
				<param name="earliestEndTime" value="undefined" />
				<param name="latestStartTime" value="undefined" />
				<param name="minimalDuration" value="undefined" />
				<param name="openingTime" value="undefined" />
				<param name="priority" value="1.0" />
				<param name="scoringThisActivityAtAll" value="false" />
				<param name="typicalDuration" value="undefined" />
				<param name="typicalDurationScoreComputation" value="relative" />
			</parameterset>
			<parameterset type="activityParams" >
				<param name="activityType" value="walk interaction" />
				<param name="closingTime" value="undefined" />
				<param name="earliestEndTime" value="undefined" />
				<param name="latestStartTime" value="undefined" />
				<param name="minimalDuration" value="undefined" />
				<param name="openingTime" value="undefined" />
				<param name="priority" value="1.0" />
				<param name="scoringThisActivityAtAll" value="false" />
				<param name="typicalDuration" value="undefined" />
				<param name="typicalDurationScoreComputation" value="relative" />
			</parameterset>
			<parameterset type="activityParams" >
				<param name="activityType" value="home" />
				<param name="closingTime" value="undefined" />
				<param name="earliestEndTime" value="undefined" />
				<param name="latestStartTime" value="undefined" />
				<param name="minimalDuration" value="undefined" />
				<param name="openingTime" value="undefined" />
				<param name="priority" value="1.0" />
				<param name="scoringThisActivityAtAll" value="true" />
				<param name="typicalDuration" value="12:00:00" />
				<param name="typicalDurationScoreComputation" value="relative" />
			</parameterset>
			<parameterset type="activityParams" >
				<param name="activityType" value="work" />
				<param name="closingTime" value="undefined" />
				<param name="earliestEndTime" value="undefined" />
				<param name="latestStartTime" value="undefined" />
				<param name="minimalDuration" value="undefined" />
				<param name="openingTime" value="undefined" />
				<param name="priority" value="1.0" />
				<param name="scoringThisActivityAtAll" value="true" />
				<param name="typicalDuration" value="08:00:00" />
				<param name="typicalDurationScoreComputation" value="relative" />
			</parameterset>
			<parameterset type="activityParams" >
				<param name="activityType" value="ride interaction" />
				<param name="closingTime" value="undefined" />
				<param name="earliestEndTime" value="undefined" />
				<param name="latestStartTime" value="undefined" />
				<param name="minimalDuration" value="undefined" />
				<param name="openingTime" value="undefined" />
				<param name="priority" value="1.0" />
				<param name="scoringThisActivityAtAll" value="false" />
				<param name="typicalDuration" value="undefined" />
				<param name="typicalDurationScoreComputation" value="relative" />
			</parameterset>
			<parameterset type="modeParams" >
				<!-- [utils] alternative-specific constant.  Normally per trip, but that is probably buggy for multi-leg trips. -->
				<param name="constant" value="0.0" />
				<!-- [unit_of_money/day] Fixed cost of mode, per day. -->
				<param name="dailyMonetaryConstant" value="0.0" />
				<!-- [utils] daily utility constant. default=0 to be backwards compatible -->
				<param name="dailyUtilityConstant" value="0.0" />
				<!-- [utils/m] utility of traveling (e.g. walking or driving) per m, normally negative.  this is on top of the time (dis)utility. -->
				<param name="marginalUtilityOfDistance_util_m" value="0.0" />
				<!-- [utils/hr] additional marginal utility of traveling.  normally negative.  this comes on top of the opportunity cost of time -->
				<param name="marginalUtilityOfTraveling_util_hr" value="-6.0" />
				<param name="mode" value="ride" />
				<!-- [unit_of_money/m] conversion of distance into money. Normally negative. -->
				<param name="monetaryDistanceRate" value="0.0" />
			</parameterset>
			<parameterset type="modeParams" >
				<param name="constant" value="0.0" />
				<param name="dailyMonetaryConstant" value="0.0" />
				<param name="dailyUtilityConstant" value="0.0" />
				<param name="marginalUtilityOfDistance_util_m" value="0.0" />
				<param name="marginalUtilityOfTraveling_util_hr" value="-6.0" />
				<param name="mode" value="car" />
				<param name="monetaryDistanceRate" value="0.0" />
			</parameterset>
			<parameterset type="modeParams" >
				<param name="constant" value="0.0" />
				<param name="dailyMonetaryConstant" value="0.0" />
				<param name="dailyUtilityConstant" value="0.0" />
				<param name="marginalUtilityOfDistance_util_m" value="0.0" />
				<param name="marginalUtilityOfTraveling_util_hr" value="-6.0" />
				<param name="mode" value="pt" />
				<param name="monetaryDistanceRate" value="0.0" />
			</parameterset>
			<parameterset type="modeParams" >
				<param name="constant" value="0.0" />
				<param name="dailyMonetaryConstant" value="0.0" />
				<param name="dailyUtilityConstant" value="0.0" />
				<param name="marginalUtilityOfDistance_util_m" value="0.0" />
				<param name="marginalUtilityOfTraveling_util_hr" value="-6.0" />
				<param name="mode" value="walk" />
				<param name="monetaryDistanceRate" value="0.0" />
			</parameterset>
			<parameterset type="modeParams" >
				<param name="constant" value="0.0" />
				<param name="dailyMonetaryConstant" value="0.0" />
				<param name="dailyUtilityConstant" value="0.0" />
				<param name="marginalUtilityOfDistance_util_m" value="0.0" />
				<param name="marginalUtilityOfTraveling_util_hr" value="-6.0" />
				<param name="mode" value="bike" />
				<param name="monetaryDistanceRate" value="0.0" />
			</parameterset>
			<parameterset type="modeParams" >
				<param name="constant" value="0.0" />
				<param name="dailyMonetaryConstant" value="0.0" />
				<param name="dailyUtilityConstant" value="0.0" />
				<param name="marginalUtilityOfDistance_util_m" value="0.0" />
				<param name="marginalUtilityOfTraveling_util_hr" value="-6.0" />
				<param name="mode" value="other" />
				<param name="monetaryDistanceRate" value="0.0" />
			</parameterset>
		</parameterset>
	</module>
	<module name="plans" >
		<!-- String: minOfDurationAndEndTime tryEndTimeThenDuration endTimeOnly. Anything besides minOfDurationAndEndTime will internally use a different (simpler) version of the TimeAllocationMutator. -->
		<param name="activityDurationInterpretation" value="tryEndTimeThenDuration" />
		<!-- Possible values: reject,useMainModeIdentifier -->
		<param name="handlingOfPlansWithoutRoutingMode" value="reject" />
		<!-- The Coordinates Reference System in which the coordinates are expressed in the input file. At import, the coordinates will be converted to the coordinate system defined in "global", and willbe converted back at export. If not specified, no conversion happens. -->
		<param name="inputCRS" value="null" />
		<param name="inputPersonAttributesFile" value="null" />
		<param name="inputPlansFile" value="population_test.xml" />
		<param name="insistingOnUsingDeprecatedPersonAttributeFile" value="false" />
		<!-- Defines how routes are stored in memory. Currently supported: LinkNetworkRoute, MediumCompressedNetworkRoute, HeavyCompressedNetworkRoute. -->
		<param name="networkRouteType" value="LinkNetworkRoute" />
		<!-- (not tested) will remove plan attributes that are presumably not used, such as activityStartTime. default=false. Use with Caution! -->
		<param name="removingUnnecessaryPlanAttributes" value="false" />
		<!-- Defines how departure times are interpreted in rerouting applications. If set to 'ignoreDelays', the departure time of a trip when routing along a plan will always be the nominal (plan-based) activity end time. If set to 'shiftActivityEndTimes', routing along a plan will accumulate travel times and shift activity end times if necessary -->
		<param name="tripDurationHandling" value="ignoreDelays" />
	</module>
	<module name="planscalcroute" >
		<!-- Defines how access and egress to main mode is simulated. Either of [none, accessEgressModeToLink, walkConstantTimeToLink, accessEgressModeToLinkPlusTimeConstant], Current default=none which means no access or egress trips are simulated. -->
		<param name="accessEgressType" value="none" />
		<!-- Some typical teleportation routing params are set by default, such as for walk and bike.  Setting this switch to "true" will clear them.  Note that this will also clear settings for helper modes such as for non_network_walk -->
		<param name="clearDefaultTeleportedModeParams" value="true" />
		<!-- All the modes for which the router is supposed to generate network routes (like car) -->
		<param name="networkModes" value="car" />
		<!-- strength of the randomness for the utility of money in routing under toll.  Leads to Pareto-optimal route with randomly drawn money-vs-other-attributes tradeoff. Technically the width parameter of a log-normal distribution. 3.0 seems to be a good value.  -->
		<param name="routingRandomness" value="3.0" />
		<parameterset type="teleportedModeParameters" >
			<param name="beelineDistanceFactor" value="1.3" />
			<param name="mode" value="bike" />
			<!-- Free-speed factor for a teleported mode. Travel time = teleportedModeFreespeedFactor * <freespeed car travel time>. Insert a line like this for every such mode. Please do not set teleportedModeFreespeedFactor as well as teleportedModeSpeed for the same mode, but if you do, +teleportedModeFreespeedFactor wins over teleportedModeSpeed. -->
			<param name="teleportedModeFreespeedFactor" value="null" />
			<!-- Speed for a teleported mode. Travel time = (<beeline distance> * beelineDistanceFactor) / teleportedModeSpeed. Insert a line like this for every such mode. -->
			<param name="teleportedModeSpeed" value="4.166666666666667" />
		</parameterset>
		<parameterset type="teleportedModeParameters" >
			<param name="beelineDistanceFactor" value="1.3" />
			<param name="mode" value="walk" />
			<param name="teleportedModeFreespeedFactor" value="null" />
			<param name="teleportedModeSpeed" value="0.8333333333333333" />
		</parameterset>
		<parameterset type="teleportedModeParameters" >
			<param name="beelineDistanceFactor" value="1.3" />
			<param name="mode" value="undefined" />
			<param name="teleportedModeFreespeedFactor" value="null" />
			<param name="teleportedModeSpeed" value="13.88888888888889" />
		</parameterset>
		<parameterset type="teleportedModeParameters" >
			<param name="beelineDistanceFactor" value="1.3" />
			<param name="mode" value="pt" />
			<param name="teleportedModeFreespeedFactor" value="2.0" />
			<param name="teleportedModeSpeed" value="null" />
		</parameterset>
	</module>
	<module name="ptCounts" >
		<!-- factor by which to re-scale the simulated values.  necessary when simulation runs with something different from 100%.  needs to be adapted manually -->
		<param name="countsScaleFactor" value="1.0" />
		<!-- distance to distanceFilterCenterNode to include counting stations. The unit of distance is the Euclidean distance implied by the coordinate system -->
		<param name="distanceFilter" value="null" />
		<!-- node id for center node of distance filter -->
		<param name="distanceFilterCenterNode" value="null" />
		<!-- input file containing the alighting (getting off) counts for pt -->
		<param name="inputAlightCountsFile" value="null" />
		<!-- input file containing the boarding (getting on) counts for pt -->
		<param name="inputBoardCountsFile" value="null" />
		<!-- input file containing the occupancy counts for pt -->
		<param name="inputOccupancyCountsFile" value="null" />
		<!-- possible values: `html', `txt', `all' -->
		<param name="outputformat" value="null" />
		<!-- every how many iterations (starting with 0) counts comparisons are generated -->
		<param name="ptCountsInterval" value="10" />
	</module>
	<module name="qsim" >
		<param name="endTime" value="undefined" />
		<!-- If set to withLinkAttributes snapshots will only be generated for links which include generateSnapshotForLink as attribute key. Default is no filtering. -->
		<param name="filterSnapshots" value="no" />
		<param name="flowCapacityFactor" value="1.0" />
		<!-- decides if waiting vehicles enter the network after or before the already driving vehicles were moved. Default: false -->
		<param name="insertingWaitingVehiclesBeforeDrivingVehicles" value="true" />
		<!-- If link dynamics is set as SeepageQ, set to false if all seep modes should perform seepage. Default is true (better option). -->
		<param name="isRestrictingSeepage" value="true" />
		<!-- If link dynamics is set as SeepageQ, set to true if seep mode do not consumes any space on the link. Default is false. -->
		<param name="isSeepModeStorageFree" value="false" />
		<!-- default: FIFO; options: FIFO PassingQ SeepageQ -->
		<param name="linkDynamics" value="FIFO" />
		<!-- The (initial) width of the links of the network. Use positive floating point values. This is used only for visualisation. -->
		<param name="linkWidth" value="30.0" />
		<!-- [comma-separated list] Defines which modes are congested modes. Technically, these are the modes that the departure handler of the netsimengine handles.  Effective cell size, effective lane width, flow capacity factor, and storage capacity factor need to be set with diligence.  Need to be vehicular modes to make sense. -->
		<param name="mainMode" value="car" />
		<!-- Shortens a link in the visualization, i.e. its start and end point are moved into towards the center. Does not affect traffic flow.  -->
		<param name="nodeOffset" value="0.0" />
		<!-- Number of threads used for the QSim.  Note that this setting is independent from the "global" threads setting.  In contrast to earlier versions, the non-parallel special version is no longer there. -->
		<param name="numberOfThreads" value="1" />
		<!-- Boolean. `true': stuck vehicles are removed, aborting the plan; `false': stuck vehicles are forced into the next link. `false' is probably the better choice. -->
		<param name="removeStuckVehicles" value="false" />
		<!-- If link dynamics is set as SeepageQ, set a seep mode. Default is bike. -->
		<param name="seepMode" value="bike" />
		<!-- Possible values: minOfEndtimeAndMobsimFinished,onlyUseEndtime -->
		<param name="simEndtimeInterpretation" value="null" />
		<!-- Options: maxOfStarttimeAndEarliestActivityEnd onlyUseStarttime  -->
		<param name="simStarttimeInterpretation" value="maxOfStarttimeAndEarliestActivityEnd" />
		<!-- snapshotStyle. One of: equiDist queue withHoles withHolesAndShowHoles kinematicWaves  -->
		<param name="snapshotStyle" value="queue" />
		<param name="snapshotperiod" value="00:00:00" />
		<param name="startTime" value="undefined" />
		<param name="storageCapacityFactor" value="1.0" />
		<!-- time in seconds.  Time after which the frontmost vehicle on a link is called `stuck' if it does not move. -->
		<param name="stuckTime" value="10.0" />
		<param name="timeStepSize" value="00:00:01" />
		<!-- options: queue withHoles kinematicWaves  -->
		<param name="trafficDynamics" value="queue" />
		<!-- Set this parameter to true if lanes should be used, false if not. -->
		<param name="useLanes" value="false" />
		<!-- If a route does not reference a vehicle, agents will use the vehicle with the same id as their own. -->
		<param name="usePersonIdForMissingVehicleId" value="true" />
		<!-- If false, the qsim accumulates fractional flows up to one flow unit in every time step.  If true, flows are updated only if an agent wants to enter the link or an agent is added to buffer. Default is true. -->
		<param name="usingFastCapacityUpdate" value="true" />
		<!-- Defines what happens if an agent wants to depart, but the specified vehicle is not available. One of: teleport wait exception  -->
		<param name="vehicleBehavior" value="teleport" />
		<!-- If vehicles should all be the same default vehicle, or come from the vehicles file, or something else.  Possible values:  defaultVehicle modeVehicleTypesFromVehiclesData fromVehiclesData -->
		<param name="vehiclesSource" value="defaultVehicle" />
	</module>
	<module name="strategy" >
		<!-- the external executable will be called with a config file as argument.  This is the pathname to a possible skeleton config, to which additional information will be added.  Can be null. -->
		<param name="ExternalExeConfigTemplate" value="null" />
		<!-- time out value (in seconds) after which matsim will consider the external strategy as failed -->
		<param name="ExternalExeTimeOut" value="3600" />
		<!-- root directory for temporary files generated by the external executable. Provided as a service; I don't think this is used by MATSim. -->
		<param name="ExternalExeTmpFileRootDir" value="null" />
		<!-- fraction of iterations where innovative strategies are switched off.  Something like 0.8 should be good.  E.g. if you run from iteration 400 to iteration 500, innovation is switched off at iteration 480 -->
		<param name="fractionOfIterationsToDisableInnovation" value="Infinity" />
		<!-- maximum number of plans per agent.  ``0'' means ``infinity''.  Currently (2010), ``5'' is a good number -->
		<param name="maxAgentPlanMemorySize" value="5" />
		<!-- strategyName of PlanSelector for plans removal.  Possible defaults: WorstPlanSelector SelectRandom SelectExpBetaForRemoval ChangeExpBetaForRemoval PathSizeLogitSelectorForRemoval . The current default, WorstPlanSelector is not a good choice from a discrete choice theoretical perspective. Alternatives, however, have not been systematically tested. kai, feb'12 -->
		<param name="planSelectorForRemoval" value="WorstPlanSelector" />
		<parameterset type="strategysettings" >
			<!-- iteration after which strategy will be disabled.  most useful for ``innovative'' strategies (new routes, new times, ...). Normally, better use fractionOfIterationsToDisableInnovation -->
			<param name="disableAfterIteration" value="-1" />
			<!-- path to external executable (if applicable) -->
			<param name="executionPath" value="null" />
			<!-- strategyName of strategy.  Possible default names: SelectRandom BestScore KeepLastSelected ChangeExpBeta SelectExpBeta SelectPathSizeLogit      (selectors), ReRouteTimeAllocationMutatorTimeAllocationMutator_ReRouteChangeSingleTripModeChangeTripModeSubtourModeChoice (innovative strategies). -->
			<param name="strategyName" value="ChangeExpBeta" />
			<!-- subpopulation to which the strategy applies. "null" refers to the default population, that is, the set of persons for which no explicit subpopulation is defined (ie no subpopulation attribute) -->
			<param name="subpopulation" value="null" />
			<!-- weight of a strategy: for each agent, a strategy will be selected with a probability proportional to its weight -->
			<param name="weight" value="1.0" />
		</parameterset>
	</module>
	<module name="subtourModeChoice" >
		<!-- Only for backwards compatibility.  Defines if only trips from modes list should change mode, or all trips.  Options: fromAllModesToSpecifiedModes fromSpecifiedModesToSpecifiedModes betweenAllAndFewerConstraints  -->
		<param name="behavior" value="fromSpecifiedModesToSpecifiedModes" />
		<!-- Defines the chain-based modes, seperated by commas -->
		<param name="chainBasedModes" value="car,bike" />
		<!-- Defines whether car availability must be considered or not. A agent has no car only if it has no license, or never access to a car -->
		<param name="considerCarAvailability" value="false" />
		<!-- If greater than 0, subtours will also consider coordinates to be at the same location when smaller than set distance. -->
		<param name="coordDistance" value="0.0" />
		<!-- Defines all the modes available, including chain-based modes, seperated by commas -->
		<param name="modes" value="car,pt,bike,walk" />
		<!-- Defines the probability of changing a single trip for a unchained mode instead of subtour. -->
		<param name="probaForRandomSingleTripMode" value="0.0" />
	</module>
	<module name="transit" >
		<!-- The Coordinates Reference System in which the coordinates are expressed in the input file. At import, the coordinates will be converted to the coordinate system defined in "global", and willbe converted back at export. If not specified, no conversion happens. -->
		<param name="inputScheduleCRS" value="null" />
		<param name="insistingOnUsingDeprecatedAttributeFiles" value="false" />
		<!-- The type of transit routing algorithm used, may have the values: [DijkstraBased, SwissRailRaptor] -->
		<param name="routingAlgorithmType" value="SwissRailRaptor" />
		<!-- Optional input file containing additional attributes for transit lines, stored as ObjectAttributes. -->
		<param name="transitLinesAttributesFile" value="null" />
		<!-- Comma-separated list of transportation modes that are handled as transit. Defaults to 'pt'. -->
		<param name="transitModes" value="pt" />
		<!-- Input file containing the transit schedule to be simulated. -->
		<param name="transitScheduleFile" value="null" />
		<!-- Optional input file containing additional attributes for transit stop facilities, stored as ObjectAttributes. -->
		<param name="transitStopsAttributesFile" value="null" />
		<!-- Set this parameter to true if transit should be simulated, false if not. -->
		<param name="useTransit" value="false" />
		<param name="usingTransitInMobsim" value="true" />
		<!-- Input file containing the vehicles used by the departures in the transit schedule. -->
		<param name="vehiclesFile" value="null" />
	</module>
	<module name="transitRouter" >
		<!-- additional time the router allocates when a line switch happens. Can be interpreted as a 'safety' time that agents need to safely transfer from one line to another -->
		<param name="additionalTransferTime" value="0.0" />
		<!-- Factor with which direct walk generalized cost is multiplied before it is compared to the pt generalized cost.  Set to a very high value to reduce direct walk results. -->
		<param name="directWalkFactor" value="1.0" />
		<!-- step size to increase searchRadius if no stops are found -->
		<param name="extensionRadius" value="200.0" />
		<!-- maximum beeline distance between stops that agents could transfer to by walking -->
		<param name="maxBeelineWalkConnectionDistance" value="100.0" />
		<!-- the radius in which stop locations are searched, given a start or target coordinate -->
		<param name="searchRadius" value="1000.0" />
	</module>
	<module name="travelTimeCalculator" >
		<!-- (only for backwards compatibility; only used if separateModes==false && + filterModes==true)  Transport modes that will be respected by the travel time collector. 'car' is default which includes also buses from the pt simulation module. -->
		<param name="analyzedModes" value="car" />
		<param name="calculateLinkToLinkTravelTimes" value="false" />
		<param name="calculateLinkTravelTimes" value="true" />
		<!-- (only for backwards compatiblity; only used if separateModes==false)  Only modes included in analyzedModes are included. -->
		<param name="filterModes" value="false" />
		<!-- The lenght (in sec) of the time period that is splited into time bins; an additional time bin is created to aggregate all travel times collected after maxTime -->
		<param name="maxTime" value="108000" />
		<!-- (only for backwards compatibility) If false, link travel times are measured and aggregated over all vehicles using the link. -->
		<param name="separateModes" value="true" />
		<!-- How to deal with congested time bins that have no link entry events. `optimistic' assumes free speed (too optimistic); 'experimental_LastMile' is experimental and probably too pessimistic. -->
		<param name="travelTimeAggregator" value="optimistic" />
		<!-- The size of the time bin (in sec) into which the link travel times are aggregated for the router -->
		<param name="travelTimeBinSize" value="900" />
		<!-- possible values: TravelTimeCalculatorArray TravelTimeCalculatorHashMap  -->
		<param name="travelTimeCalculator" value="TravelTimeCalculatorArray" />
		<!-- How to deal with link entry times at different positions during the time bin. Currently supported: average, linearinterpolation -->
		<param name="travelTimeGetter" value="average" />
	</module>
	<module name="vehicles" >
		<param name="vehiclesFile" value="sample_emissionVehicles_v2.xml" />
	</module>
	<module name="vspExperimental" >
		<!-- (do not use except of you have to) There was a problem with pt interaction scoring.  Some people solved it by overwriting the parameters of the pt interaction activity type.  Doing this now throws an Exception.  If you still insist on doing this, set the following to true. -->
		<param name="isAbleToOverwritePtInteractionParams" value="false" />
		<param name="isGeneratingBoardingDeniedEvent" value="false" />
		<!-- if an approximation of the opportunity cost of time is included into the radius calculation for location choice.`true' will be faster, but it is an approximation.  Default is `true'; `false' is available for backwards compatibility. -->
		<param name="isUsingOpportunityCostOfTimeForLocationChoice" value="true" />
		<param name="logitScaleParamForPlansRemoval" value="1.0" />
		<!-- Options: | ignore | info | warn | abort | .  When violating VSP defaults, this results in nothing, logfile infos, logfile warnings, or aborts.  Members of VSP should use `abort' or talk to kai. -->
		<param name="vspDefaultsCheckingLevel" value="warn" />
		<!-- if true then writes output_events in output directory.  default is `false'. Will only work when lastIteration is multiple of events writing interval -->
		<param name="writingOutputEvents" value="true" />
	</module>

</config>

2024-05-13T12:53:40,531  INFO ControlerUtils:85 Complete config dump done.
2024-05-13T12:53:40,531  INFO ControlerUtils:86 Checking consistency of config...
2024-05-13T12:53:40,531  INFO PlanCalcScoreConfigGroup$ScoringParameterSet:1555 NO OPENING OR CLOSING TIMES DEFINED!

There is no activity type that has an opening *and* closing time (or opening time and late penalty) defined.
This usually means that the activity chains can be shifted by an arbitrary
number of hours without having an effect on the score of the plans, and thus
resulting in wrong results / traffic patterns.
If you are using MATSim without time adaptation, you can ignore this warning.


2024-05-13T12:53:40,531  INFO VspConfigConsistencyCheckerImpl:78 running checkConsistency ...
2024-05-13T12:53:40,531  WARN VspConfigConsistencyCheckerImpl:89 you are insisting on config v1.  vsp default is using v2.
2024-05-13T12:53:40,531  WARN VspConfigConsistencyCheckerImpl:404 you are not using SpeedyALT as routing algorithm.  vsp default (since may'21) is to use SpeedeALT.
2024-05-13T12:53:40,531  WARN VspConfigConsistencyCheckerImpl:190 You are not setting fractionOfIterationsToStartScoreMSA; vsp default is to set this to something like 0.8.  This means you have to add the following lines to your config file: 
2024-05-13T12:53:40,531  WARN VspConfigConsistencyCheckerImpl:192 <module name="planCalcScore">
2024-05-13T12:53:40,531  WARN VspConfigConsistencyCheckerImpl:193 	<param name="fractionOfIterationsToStartScoreMSA" value="0.8" />
2024-05-13T12:53:40,533  WARN VspConfigConsistencyCheckerImpl:194 </module>
2024-05-13T12:53:40,533  WARN VspConfigConsistencyCheckerImpl:212 You are not removing unnecessary plan attributes; vsp default is to do that.
2024-05-13T12:53:40,533  WARN VspConfigConsistencyCheckerImpl:245 found `PlansCalcRouteConfigGroup.AccessEgressType.none'; vsp should use `accessEgressModeToLink' or some other value or talk to Kai.
2024-05-13T12:53:40,533  WARN VspConfigConsistencyCheckerImpl:252 found qsim.usePersonIdForMissingVehicleId==true; this is only for backwards compatibility and should rather be set to false
2024-05-13T12:53:40,533  WARN VspConfigConsistencyCheckerImpl:257 found `qsim.usingTravelTimeCheckInTeleporation==false'; vsp should try out `true' and report.
2024-05-13T12:53:40,534  WARN VspConfigConsistencyCheckerImpl:270  found 'qsim.trafficDynamics==queue'; vsp standard is`kinematicWaves'.
2024-05-13T12:53:40,534  WARN VspConfigConsistencyCheckerImpl:300 You have not set fractionOfIterationsToDisableInnovation; vsp default is to set this to 0.8 or similar.  Add the following config lines:
2024-05-13T12:53:40,534  WARN VspConfigConsistencyCheckerImpl:301 <module name="strategy">
2024-05-13T12:53:40,534  WARN VspConfigConsistencyCheckerImpl:302 	<param name="fractionOfIterationsToDisableInnovation" value="0.8" />
2024-05-13T12:53:40,534  WARN VspConfigConsistencyCheckerImpl:303 </module>
2024-05-13T12:53:40,537  INFO ControlerUtils:88 Checking consistency of config done.
2024-05-13T12:53:40,574  WARN PrepareForSimImpl:229 'usePersonIdForMissingVehicleId' is deprecated. It will be removed soon.
2024-05-13T12:53:40,575  INFO Counter:70 [VehiclesImpl] added vehicle # 16
2024-05-13T12:53:40,575  INFO Counter:70 [VehiclesImpl] added vehicle # 32
2024-05-13T12:53:40,576  INFO Counter:70 [VehiclesImpl] added vehicle # 64
2024-05-13T12:53:40,577  INFO Counter:70 [VehiclesImpl] added vehicle # 128
2024-05-13T12:53:40,579  INFO Counter:70 [VehiclesImpl] added vehicle # 256
2024-05-13T12:53:40,582  INFO Counter:70 [VehiclesImpl] added vehicle # 512
2024-05-13T12:53:40,587  INFO Counter:70 [VehiclesImpl] added vehicle # 1024
2024-05-13T12:53:40,594  INFO Counter:70 [VehiclesImpl] added vehicle # 2048
2024-05-13T12:53:40,605  INFO Counter:70 [VehiclesImpl] added vehicle # 4096
2024-05-13T12:53:40,625  INFO Counter:70 [VehiclesImpl] added vehicle # 8192
2024-05-13T12:53:40,659  INFO Counter:70 [VehiclesImpl] added vehicle # 16384
2024-05-13T12:53:40,716  INFO Counter:70 [VehiclesImpl] added vehicle # 32768
2024-05-13T12:53:40,773  INFO Counter:70 [VehiclesImpl] added vehicle # 65536
2024-05-13T12:53:41,327  INFO PreProcessDijkstra:119 nodes in dead ends: 38929 (total nodes: 106802). Done in 286 ms
2024-05-13T12:53:41,383  INFO PreProcessLandmarks:113 Putting landmarks on network...
2024-05-13T12:53:41,401  INFO LandmarkerPieSlices:97 Filling sectors...
2024-05-13T12:53:41,601  INFO LandmarkerPieSlices:108 Refining landmarks...
2024-05-13T12:53:41,615  INFO LandmarkerPieSlices:110 done
2024-05-13T12:53:41,616  INFO PreProcessLandmarks:116 done in 231 ms
2024-05-13T12:53:41,616  INFO PreProcessLandmarks:118 Initializing landmarks data
2024-05-13T12:53:41,650  INFO PreProcessLandmarks:130 Calculating distance from each node to each of the 16 landmarks using 2 threads...
2024-05-13T12:53:41,651  INFO PreProcessLandmarks:140 wait for landmarks Calculator to finish...
2024-05-13T12:53:45,023  INFO PreProcessLandmarks:164 done in 3373 ms
2024-05-13T12:53:45,049  INFO NetworkImpl:165  node # 1
2024-05-13T12:53:45,049  INFO NetworkImpl:165  node # 4
2024-05-13T12:53:45,050  INFO NetworkImpl:165  node # 16
2024-05-13T12:53:45,050  INFO NetworkImpl:165  node # 64
2024-05-13T12:53:45,050  INFO NetworkImpl:165  node # 256
2024-05-13T12:53:45,051  INFO NetworkImpl:165  node # 1024
2024-05-13T12:53:45,052  INFO NetworkImpl:165  node # 4096
2024-05-13T12:53:45,057  INFO NetworkImpl:165  node # 16384
2024-05-13T12:53:45,070  INFO NetworkImpl:165  node # 65536
2024-05-13T12:53:45,081  INFO NetworkImpl:161  link # 1
2024-05-13T12:53:45,081  INFO NetworkImpl:161  link # 4
2024-05-13T12:53:45,081  INFO NetworkImpl:161  link # 16
2024-05-13T12:53:45,081  INFO NetworkImpl:161  link # 64
2024-05-13T12:53:45,082  INFO NetworkImpl:161  link # 256
2024-05-13T12:53:45,084  INFO NetworkImpl:161  link # 1024
2024-05-13T12:53:45,090  INFO NetworkImpl:161  link # 4096
2024-05-13T12:53:45,112  INFO NetworkImpl:161  link # 16384
2024-05-13T12:53:45,186  INFO NetworkImpl:161  link # 65536
2024-05-13T12:53:45,424  WARN RandomizingTimeDistanceTravelDisutilityFactory:113 There will be no routing randomness. The randomization of the travel disutility requires the monetary distance rate to be different than zero. Continuing anyway.
2024-05-13T12:53:45,424  WARN RandomizingTimeDistanceTravelDisutilityFactory:118 There will be no routing randomness. The randomization of the travel disutility requires the travel time cost rate to be different than zero. Continuing anyway.
2024-05-13T12:53:45,425  INFO RandomizingTimeDistanceTravelDisutilityFactory:86  sigma: 3.0; resulting normalization: 0.011108996538242306
2024-05-13T12:53:45,603  INFO PreProcessDijkstra:119 nodes in dead ends: 38929 (total nodes: 106802). Done in 176 ms
2024-05-13T12:53:45,669  INFO PreProcessLandmarks:113 Putting landmarks on network...
2024-05-13T12:53:45,674  INFO LandmarkerPieSlices:97 Filling sectors...
2024-05-13T12:53:45,795  INFO LandmarkerPieSlices:108 Refining landmarks...
2024-05-13T12:53:45,811  INFO LandmarkerPieSlices:110 done
2024-05-13T12:53:45,811  INFO PreProcessLandmarks:116 done in 142 ms
2024-05-13T12:53:45,811  INFO PreProcessLandmarks:118 Initializing landmarks data
2024-05-13T12:53:46,050  INFO PreProcessLandmarks:130 Calculating distance from each node to each of the 16 landmarks using 2 threads...
2024-05-13T12:53:46,051  INFO PreProcessLandmarks:140 wait for landmarks Calculator to finish...
2024-05-13T12:53:49,130  INFO PreProcessLandmarks:164 done in 3079 ms
2024-05-13T12:53:49,187  INFO RandomizingTimeDistanceTravelDisutilityFactory:86  sigma: 3.0; resulting normalization: 0.011108996538242306
2024-05-13T12:53:49,260  INFO NetworkImpl:419 building QuadTree for nodes: xrange(8494396.458028924,8527402.478718683); yrange(1107400.5437755862,1134680.7490567388)
2024-05-13T12:53:49,419  INFO NetworkImpl:428 Building QuadTree took 0.18 seconds.
2024-05-13T12:53:49,428  INFO Counter:70 [PersonPrepareForSim] handled person # 1
2024-05-13T12:53:49,428  INFO Counter:70 [PersonPrepareForSim] handled person # 4
2024-05-13T12:53:49,428  INFO Counter:70 [PersonPrepareForSim] handled person # 2
2024-05-13T12:53:49,428  INFO Counter:70 [PersonPrepareForSim] handled person # 8
2024-05-13T12:53:49,429  INFO Counter:70 [PersonPrepareForSim] handled person # 16
2024-05-13T12:53:49,430  INFO Counter:70 [PersonPrepareForSim] handled person # 32
2024-05-13T12:53:49,432  INFO Counter:70 [PersonPrepareForSim] handled person # 64
2024-05-13T12:53:49,437  INFO Counter:70 [PersonPrepareForSim] handled person # 128
2024-05-13T12:53:49,442  INFO Counter:70 [PersonPrepareForSim] handled person # 256
2024-05-13T12:53:49,452  INFO Counter:70 [PersonPrepareForSim] handled person # 512
2024-05-13T12:53:49,459  INFO Counter:70 [PersonPrepareForSim] handled person # 1024
2024-05-13T12:53:49,471  INFO Counter:70 [PersonPrepareForSim] handled person # 2048
2024-05-13T12:53:49,529  INFO Counter:70 [PersonPrepareForSim] handled person # 4096
2024-05-13T12:53:49,561  INFO Counter:70 [PersonPrepareForSim] handled person # 8192
2024-05-13T12:53:49,599  INFO Counter:70 [PersonPrepareForSim] handled person # 16384
2024-05-13T12:53:49,852  INFO Counter:70 [PersonPrepareForSim] handled person # 32768
2024-05-13T12:53:49,996  INFO Counter:70 [PersonPrepareForSim] handled person # 65536
2024-05-13T12:53:50,088  INFO Counter:75 [PersonPrepareForSim] handled person # 84835
2024-05-13T12:53:50,166  INFO AbstractController:134 ###################################################
2024-05-13T12:53:50,168  INFO AbstractController:135 ### ITERATION 0 BEGINS
2024-05-13T12:53:50,169  INFO ControlerListenerManagerImpl:146 calling notifyIterationStarts on org.matsim.analysis.LegHistogramListener
2024-05-13T12:53:50,170  INFO ControlerListenerManagerImpl:146 calling notifyIterationStarts on org.matsim.analysis.LinkStatsControlerListener
2024-05-13T12:53:50,170  INFO ControlerListenerManagerImpl:146 calling notifyIterationStarts on org.matsim.core.replanning.ReplanningContextImpl
2024-05-13T12:53:50,170  INFO ControlerListenerManagerImpl:146 calling notifyIterationStarts on org.matsim.core.scoring.ScoringFunctionsForPopulation$$Lambda$238/0x0000000801335c58
2024-05-13T12:53:50,340  INFO ControlerListenerManagerImpl:146 calling notifyIterationStarts on org.matsim.core.scoring.ExperiencedPlansServiceImpl$1
2024-05-13T12:53:50,364  INFO ControlerListenerManagerImpl:149 [it.0] all ControlerIterationStartsListeners called.
2024-05-13T12:53:50,365  INFO ControlerListenerManagerImpl:225 calling notifyBeforeMobsim on org.matsim.core.controler.corelisteners.EventsHandlingImpl
2024-05-13T12:53:50,365  INFO EventsManagerImpl:168 resetting Event-Handlers
2024-05-13T12:53:50,365  INFO EventsManagerImpl:175   org.matsim.core.trafficmonitoring.TravelTimeCalculator
2024-05-13T12:53:50,366  INFO EventsManagerImpl:175   org.matsim.analysis.VolumesAnalyzer
2024-05-13T12:53:50,368  INFO EventsManagerImpl:175   org.matsim.core.scoring.ScoringFunctionsForPopulation
2024-05-13T12:53:50,368  INFO EventsManagerImpl:175   org.matsim.analysis.LegHistogram
2024-05-13T12:53:50,368  INFO EventsManagerImpl:175   org.matsim.analysis.CalcLegTimes
2024-05-13T12:53:50,376  INFO EventsManagerImpl:138 adding Event-Handler: org.matsim.core.events.algorithms.EventWriterXML
2024-05-13T12:53:50,376  INFO EventsManagerImpl:144   org.matsim.core.events.algorithms.EventWriter
2024-05-13T12:53:50,376  INFO EventsManagerImpl:144   org.matsim.core.events.handler.BasicEventHandler
2024-05-13T12:53:50,376  INFO EventsManagerImpl:205     > org.matsim.api.core.v01.events.Event
2024-05-13T12:53:50,376  INFO EventsManagerImpl:154 
2024-05-13T12:53:50,376  INFO EventsManagerImpl:138 adding Event-Handler: org.matsim.core.events.algorithms.EventWriterXML
2024-05-13T12:53:50,376  INFO EventsManagerImpl:144   org.matsim.core.events.algorithms.EventWriter
2024-05-13T12:53:50,376  INFO EventsManagerImpl:144   org.matsim.core.events.handler.BasicEventHandler
2024-05-13T12:53:50,376  INFO EventsManagerImpl:205     > org.matsim.api.core.v01.events.Event
2024-05-13T12:53:50,376  INFO EventsManagerImpl:154 
2024-05-13T12:53:50,376  INFO ControlerListenerManagerImpl:225 calling notifyBeforeMobsim on org.matsim.core.controler.corelisteners.PlansDumpingImpl
2024-05-13T12:53:50,377  INFO PlansDumpingImpl:77 dumping plans...
2024-05-13T12:53:50,450  INFO Counter:70 [PopulationWriter] dumped person # 1
2024-05-13T12:53:50,453  INFO Counter:70 [PopulationWriter] dumped person # 2
2024-05-13T12:53:50,454  INFO Counter:70 [PopulationWriter] dumped person # 4
2024-05-13T12:53:50,454  INFO Counter:70 [PopulationWriter] dumped person # 8
2024-05-13T12:53:50,456  INFO Counter:70 [PopulationWriter] dumped person # 16
2024-05-13T12:53:50,460  INFO Counter:70 [PopulationWriter] dumped person # 32
2024-05-13T12:53:50,465  INFO Counter:70 [PopulationWriter] dumped person # 64
2024-05-13T12:53:50,474  INFO Counter:70 [PopulationWriter] dumped person # 128
2024-05-13T12:53:50,490  INFO Counter:70 [PopulationWriter] dumped person # 256
2024-05-13T12:53:50,514  INFO Counter:70 [PopulationWriter] dumped person # 512
2024-05-13T12:53:50,540  INFO Counter:70 [PopulationWriter] dumped person # 1024
2024-05-13T12:53:50,595  INFO Counter:70 [PopulationWriter] dumped person # 2048
2024-05-13T12:53:50,693  INFO Counter:70 [PopulationWriter] dumped person # 4096
2024-05-13T12:53:50,855  INFO Counter:70 [PopulationWriter] dumped person # 8192
2024-05-13T12:53:51,095  INFO Counter:70 [PopulationWriter] dumped person # 16384
2024-05-13T12:53:51,463  INFO Counter:70 [PopulationWriter] dumped person # 32768
2024-05-13T12:53:52,239  INFO Counter:70 [PopulationWriter] dumped person # 65536
2024-05-13T12:53:52,725  INFO PopulationWriter:145 Population written to: ./output/ITERS/it.0/0.plans.xml.gz
2024-05-13T12:53:52,726  INFO Counter:75 [PopulationWriter] dumped person # 84835
2024-05-13T12:53:52,726  INFO PlansDumpingImpl:94 finished plans dump.
2024-05-13T12:53:52,727  INFO ControlerListenerManagerImpl:230 calling notifyBeforeMobsim on org.matsim.core.population.VspPlansCleaner
2024-05-13T12:53:52,798  INFO ControlerListenerManagerImpl:233 [it.0] all ControlerBeforeMobsimListeners called.
2024-05-13T12:53:52,835  INFO RandomizingTimeDistanceTravelDisutilityFactory:86  sigma: 3.0; resulting normalization: 0.011108996538242306
2024-05-13T12:53:52,847  INFO RandomizingTimeDistanceTravelDisutilityFactory:86  sigma: 3.0; resulting normalization: 0.011108996538242306
2024-05-13T12:53:52,868  INFO Counter:70 [PersonPrepareForSim] handled person # 2
2024-05-13T12:53:52,868  INFO Counter:70 [PersonPrepareForSim] handled person # 1
2024-05-13T12:53:52,872  INFO Counter:70 [PersonPrepareForSim] handled person # 4
2024-05-13T12:53:52,872  INFO Counter:70 [PersonPrepareForSim] handled person # 8
2024-05-13T12:53:52,872  INFO Counter:70 [PersonPrepareForSim] handled person # 16
2024-05-13T12:53:52,872  INFO Counter:70 [PersonPrepareForSim] handled person # 32
2024-05-13T12:53:52,872  INFO Counter:70 [PersonPrepareForSim] handled person # 64
2024-05-13T12:53:52,872  INFO Counter:70 [PersonPrepareForSim] handled person # 128
2024-05-13T12:53:52,872  INFO Counter:70 [PersonPrepareForSim] handled person # 256
2024-05-13T12:53:52,873  INFO Counter:70 [PersonPrepareForSim] handled person # 512
2024-05-13T12:53:52,874  INFO Counter:70 [PersonPrepareForSim] handled person # 1024
2024-05-13T12:53:52,877  INFO Counter:70 [PersonPrepareForSim] handled person # 2048
2024-05-13T12:53:52,882  INFO Counter:70 [PersonPrepareForSim] handled person # 4096
2024-05-13T12:53:52,891  INFO Counter:70 [PersonPrepareForSim] handled person # 8192
2024-05-13T12:53:52,910  INFO Counter:70 [PersonPrepareForSim] handled person # 16384
2024-05-13T12:53:52,972  INFO Counter:70 [PersonPrepareForSim] handled person # 32768
2024-05-13T12:53:52,996  INFO Counter:70 [PersonPrepareForSim] handled person # 65536
2024-05-13T12:53:53,010  INFO Counter:75 [PersonPrepareForSim] handled person # 84835
2024-05-13T12:53:53,152  INFO MobsimListenerManager:50 calling addQueueSimulationListener
2024-05-13T12:53:53,153  INFO MobsimListenerManager:54   assigned class org.matsim.core.mobsim.framework.listeners.MobsimListener to interface org.matsim.vis.snapshotwriters.SnapshotWriterManager
2024-05-13T12:53:53,153  INFO MobsimListenerManager:54   assigned class org.matsim.core.mobsim.framework.listeners.MobsimListener to interface org.matsim.core.mobsim.framework.listeners.MobsimAfterSimStepListener
2024-05-13T12:53:53,153  INFO MobsimListenerManager:54   assigned class org.matsim.core.mobsim.framework.listeners.MobsimListener to interface org.matsim.core.mobsim.framework.listeners.MobsimListener
2024-05-13T12:53:53,153  INFO MobsimListenerManager:54   assigned class org.matsim.core.mobsim.framework.listeners.MobsimListener to interface org.matsim.core.mobsim.framework.listeners.MobsimBeforeCleanupListener
2024-05-13T12:53:53,153  INFO MobsimListenerManager:54   assigned class org.matsim.core.mobsim.framework.listeners.MobsimListener to interface org.matsim.core.mobsim.framework.listeners.MobsimInitializedListener
2024-05-13T12:53:53,878  INFO QSimProvider:131 Added MobsimEngine class org.matsim.core.mobsim.qsim.ActivityEngineDefaultImpl
2024-05-13T12:53:53,879  INFO QSimProvider:137 Added Activityhandler class org.matsim.core.mobsim.qsim.ActivityEngineDefaultImpl
2024-05-13T12:53:53,879  INFO QSimProvider:143 Added DepartureHandler class org.matsim.core.mobsim.qsim.qnetsimengine.VehicularDepartureHandler
2024-05-13T12:53:53,879  INFO QSimProvider:131 Added MobsimEngine class org.matsim.core.mobsim.qsim.qnetsimengine.QNetsimEngineWithThreadpool
2024-05-13T12:53:53,879  INFO QSimProvider:131 Added MobsimEngine class org.matsim.core.mobsim.qsim.DefaultTeleportationEngine
2024-05-13T12:53:53,879  INFO QSimProvider:143 Added DepartureHandler class org.matsim.core.mobsim.qsim.DefaultTeleportationEngine
2024-05-13T12:53:53,879  INFO QSimProvider:149 Added AgentSource class org.matsim.core.mobsim.qsim.agents.PopulationAgentSource
2024-05-13T12:53:53,880  INFO MobsimListenerManager:50 calling addQueueSimulationListener
2024-05-13T12:53:53,880  INFO MobsimListenerManager:54   assigned class org.matsim.core.mobsim.framework.listeners.MobsimListener to interface org.matsim.core.mobsim.framework.listeners.MobsimBeforeSimStepListener
2024-05-13T12:53:53,880  INFO MobsimListenerManager:54   assigned class org.matsim.core.mobsim.framework.listeners.MobsimListener to interface org.matsim.core.mobsim.framework.listeners.MobsimListener
2024-05-13T12:53:53,880  INFO MobsimListenerManager:54   assigned class org.matsim.core.mobsim.framework.listeners.MobsimListener to interface org.matsim.core.mobsim.qsim.messagequeueengine.MessageQueueEngine
2024-05-13T12:53:53,880  INFO QSimProvider:155 Added MobsimListener class org.matsim.core.mobsim.qsim.messagequeueengine.MessageQueueEngine
2024-05-13T12:53:53,899  INFO PopulationUtils:1202 adding scenario element for allpersons container
2024-05-13T12:53:53,900  INFO PopulationImpl:107  person # 1
2024-05-13T12:53:53,900  INFO PopulationImpl:107  person # 4
2024-05-13T12:53:53,901  INFO PopulationImpl:107  person # 16
2024-05-13T12:53:53,901  INFO PopulationImpl:107  person # 64
2024-05-13T12:53:53,905  INFO PopulationImpl:107  person # 256
2024-05-13T12:53:53,911  INFO PopulationImpl:107  person # 1024
2024-05-13T12:53:53,924  INFO PopulationImpl:107  person # 4096
2024-05-13T12:53:54,170  INFO PopulationImpl:107  person # 16384
2024-05-13T12:53:54,324  INFO PopulationImpl:107  person # 65536
2024-05-13T12:53:54,442  INFO VehicleUtils:328 adding scenario element for allvehicles container
2024-05-13T12:53:54,442  INFO Counter:70 [VehiclesImpl] added vehicle # 1
2024-05-13T12:53:54,442  INFO Counter:70 [VehiclesImpl] added vehicle # 2
2024-05-13T12:53:54,443  INFO Counter:70 [VehiclesImpl] added vehicle # 4
2024-05-13T12:53:54,443  INFO Counter:70 [VehiclesImpl] added vehicle # 8
2024-05-13T12:53:54,443  INFO Counter:70 [VehiclesImpl] added vehicle # 16
2024-05-13T12:53:54,444  INFO Counter:70 [VehiclesImpl] added vehicle # 32
2024-05-13T12:53:54,444  INFO Counter:70 [VehiclesImpl] added vehicle # 64
2024-05-13T12:53:54,445  INFO Counter:70 [VehiclesImpl] added vehicle # 128
2024-05-13T12:53:54,447  INFO Counter:70 [VehiclesImpl] added vehicle # 256
2024-05-13T12:53:54,450  INFO Counter:70 [VehiclesImpl] added vehicle # 512
2024-05-13T12:53:54,453  INFO Counter:70 [VehiclesImpl] added vehicle # 1024
2024-05-13T12:53:54,459  INFO Counter:70 [VehiclesImpl] added vehicle # 2048
2024-05-13T12:53:54,469  INFO Counter:70 [VehiclesImpl] added vehicle # 4096
2024-05-13T12:53:54,489  INFO Counter:70 [VehiclesImpl] added vehicle # 8192
2024-05-13T12:53:54,517  INFO Counter:70 [VehiclesImpl] added vehicle # 16384
2024-05-13T12:53:54,572  INFO Counter:70 [VehiclesImpl] added vehicle # 32768
2024-05-13T12:53:54,740  INFO Counter:70 [VehiclesImpl] added vehicle # 65536
2024-05-13T12:53:54,974  INFO AbstractQNetsimEngine:428 Assigned 106802 nodes and 242617 links to QSimEngineRunner #0
2024-05-13T12:53:55,201  INFO EventsManagerImpl:115  event # 1
2024-05-13T12:53:55,222  INFO EventsManagerImpl:115  event # 4
2024-05-13T12:53:55,223  INFO EventsManagerImpl:115  event # 16
2024-05-13T12:53:55,225  INFO EventsManagerImpl:115  event # 64
2024-05-13T12:53:55,230  INFO EventsManagerImpl:115  event # 256
2024-05-13T12:53:55,244  INFO EventsManagerImpl:115  event # 1024
2024-05-13T12:53:55,268  INFO EventsManagerImpl:115  event # 4096
2024-05-13T12:53:55,359  INFO EventsManagerImpl:115  event # 16384
2024-05-13T12:53:56,000  INFO EventsManagerImpl:115  event # 65536
2024-05-13T12:53:56,864  INFO AbstractQNetsimEngine:366 SIMULATION (QNetsimEngine) AT 08:00:00 : #links=0 #nodes=0
2024-05-13T12:53:56,899  INFO QSim:566 SIMULATION (NEW QSim) AT 08:00:00 : #Veh=84835 lost=0 simT=0.0s realT=3s; (s/r): 0.0
2024-05-13T12:53:57,766  INFO EventsManagerImpl:115  event # 262144
2024-05-13T12:54:00,739  INFO AbstractQNetsimEngine:366 SIMULATION (QNetsimEngine) AT 09:00:00 : #links=0 #nodes=0
2024-05-13T12:54:00,740  INFO QSim:566 SIMULATION (NEW QSim) AT 09:00:00 : #Veh=84835 lost=0 simT=3600.0s realT=7s; (s/r): 514.2857142857143
2024-05-13T12:54:01,049  INFO AbstractQNetsimEngine:366 SIMULATION (QNetsimEngine) AT 10:00:00 : #links=0 #nodes=0
2024-05-13T12:54:01,049  INFO QSim:566 SIMULATION (NEW QSim) AT 10:00:00 : #Veh=84835 lost=0 simT=7200.0s realT=7s; (s/r): 1028.5714285714287
2024-05-13T12:54:01,351  INFO AbstractQNetsimEngine:366 SIMULATION (QNetsimEngine) AT 11:00:00 : #links=0 #nodes=0
2024-05-13T12:54:01,351  INFO QSim:566 SIMULATION (NEW QSim) AT 11:00:00 : #Veh=84835 lost=0 simT=10800.0s realT=8s; (s/r): 1350.0
2024-05-13T12:54:01,655  INFO AbstractQNetsimEngine:366 SIMULATION (QNetsimEngine) AT 12:00:00 : #links=0 #nodes=0
2024-05-13T12:54:01,655  INFO QSim:566 SIMULATION (NEW QSim) AT 12:00:00 : #Veh=84835 lost=0 simT=14400.0s realT=8s; (s/r): 1800.0
2024-05-13T12:54:01,943  INFO AbstractQNetsimEngine:366 SIMULATION (QNetsimEngine) AT 13:00:00 : #links=0 #nodes=0
2024-05-13T12:54:01,943  INFO QSim:566 SIMULATION (NEW QSim) AT 13:00:00 : #Veh=84835 lost=0 simT=18000.0s realT=8s; (s/r): 2250.0
2024-05-13T12:54:02,244  INFO AbstractQNetsimEngine:366 SIMULATION (QNetsimEngine) AT 14:00:00 : #links=0 #nodes=0
2024-05-13T12:54:02,244  INFO QSim:566 SIMULATION (NEW QSim) AT 14:00:00 : #Veh=84835 lost=0 simT=21600.0s realT=9s; (s/r): 2400.0
2024-05-13T12:54:02,537  INFO AbstractQNetsimEngine:366 SIMULATION (QNetsimEngine) AT 15:00:00 : #links=0 #nodes=0
2024-05-13T12:54:02,538  INFO QSim:566 SIMULATION (NEW QSim) AT 15:00:00 : #Veh=84835 lost=0 simT=25200.0s realT=9s; (s/r): 2800.0
2024-05-13T12:54:02,807  INFO AbstractQNetsimEngine:366 SIMULATION (QNetsimEngine) AT 16:00:00 : #links=0 #nodes=0
2024-05-13T12:54:02,808  INFO QSim:566 SIMULATION (NEW QSim) AT 16:00:00 : #Veh=84835 lost=0 simT=28800.0s realT=9s; (s/r): 3200.0
2024-05-13T12:54:03,096  INFO AbstractQNetsimEngine:366 SIMULATION (QNetsimEngine) AT 17:00:00 : #links=0 #nodes=0
2024-05-13T12:54:03,096  INFO QSim:566 SIMULATION (NEW QSim) AT 17:00:00 : #Veh=84835 lost=0 simT=32400.0s realT=9s; (s/r): 3600.0
2024-05-13T12:54:05,537  INFO EventsManagerImpl:115  event # 1048576
2024-05-13T12:54:07,088  INFO AbstractController$9:235 ### ITERATION 0 fires after mobsim event
2024-05-13T12:54:07,088  INFO ControlerListenerManagerImpl:249 calling notifyAfterMobsim on org.matsim.analysis.LegTimesControlerListener
2024-05-13T12:54:07,091  INFO Gbl:192 Thread performance: Thread=class org.matsim.core.events.SimStepParallelEventsManagerImpl$ProcessEventsRunnable0  cpu-time=4.875sec
2024-05-13T12:54:07,095  INFO LegTimesControlerListener:51 [0] average trip (probably: leg) duration is: 0 seconds = 00:00:00
2024-05-13T12:54:07,096  INFO ControlerListenerManagerImpl:249 calling notifyAfterMobsim on org.matsim.core.events.MobsimScopeEventHandling
2024-05-13T12:54:07,098  INFO ControlerListenerManagerImpl:249 calling notifyAfterMobsim on org.matsim.core.scoring.EventsToActivities$1
2024-05-13T12:54:07,165  INFO ControlerListenerManagerImpl:252 [it.0] all ControlerAfterMobsimListeners called.
2024-05-13T12:54:07,167  INFO AbstractController$4:160 ### ITERATION 0 fires scoring event
2024-05-13T12:54:07,167  INFO ControlerListenerManagerImpl:184 calling notifyScoring on org.matsim.core.scoring.PlansScoringImpl
2024-05-13T12:54:07,220  INFO NewScoreAssignerImpl:58 it: 0 msaStart: null
2024-05-13T12:54:07,282  INFO ControlerListenerManagerImpl:195 [it.0] all ControlerScoringListeners called.
2024-05-13T12:54:07,284  INFO AbstractController$5:168 ### ITERATION 0 fires iteration end event
2024-05-13T12:54:07,284  INFO ControlerListenerManagerImpl:161 calling notifyIterationEnds on org.matsim.core.controler.corelisteners.EventsHandlingImpl
2024-05-13T12:54:07,284  INFO EventsManagerImpl:159 removing Event-Handler: org.matsim.core.events.algorithms.EventWriterXML
2024-05-13T12:54:07,284  INFO EventsManagerImpl:159 removing Event-Handler: org.matsim.core.events.algorithms.EventWriterXML
2024-05-13T12:54:07,285  INFO ControlerListenerManagerImpl:161 calling notifyIterationEnds on org.matsim.core.scoring.PlansScoringImpl
2024-05-13T12:54:07,329  INFO ControlerListenerManagerImpl:168 calling notifyIterationEnds on org.matsim.counts.CountsControlerListener
2024-05-13T12:54:07,330  INFO ControlerListenerManagerImpl:168 calling notifyIterationEnds on org.matsim.analysis.ModeStatsControlerListener
2024-05-13T12:54:07,423  INFO ModeStatsControlerListener:145 Mode shares over all 169670.0 trips found. MainModeIdentifier: class org.matsim.core.router.RoutingModeMainModeIdentifier
2024-05-13T12:54:07,423  INFO ModeStatsControlerListener:152 -- mode share of mode car = 1.0
2024-05-13T12:54:07,424  INFO ControlerListenerManagerImpl:168 calling notifyIterationEnds on org.matsim.analysis.ScoreStatsControlerListener
2024-05-13T12:54:07,449  INFO ScoreStatsControlerListener:182 -- avg. score of the executed plan of each agent: 141.87423630629968
2024-05-13T12:54:07,449  INFO ScoreStatsControlerListener:183 -- avg. score of the worst plan of each agent: 141.87423630629968
2024-05-13T12:54:07,450  INFO ScoreStatsControlerListener:184 -- avg. of the avg. plan score per agent: 141.87423630629968
2024-05-13T12:54:07,450  INFO ScoreStatsControlerListener:185 -- avg. score of the best plan of each agent: 141.87423630629968
2024-05-13T12:54:07,455  INFO ControlerListenerManagerImpl:168 calling notifyIterationEnds on org.matsim.analysis.IterationTravelStatsControlerListener
2024-05-13T12:54:07,656  INFO TravelDistanceStats:144 -- average leg distance per plan (executed plans only): 0.0 meters
2024-05-13T12:54:07,656  INFO TravelDistanceStats:145 average leg distance per Person (executed plans only): 0.0 meters (statistic on all 169670 legs which have a finite distance)
2024-05-13T12:54:07,656  INFO TravelDistanceStats:146 -- average trip distance per plan (executed plans only): 0.0 meters
2024-05-13T12:54:07,657  INFO TravelDistanceStats:147 average trip distance per Person (executed plans only): 0.0 meters (statistic on all 169670 trips which have a finite distance)
2024-05-13T12:54:07,657  INFO TravelDistanceStats:148 (TravelDistanceStats takes an average over all legs where the simulation reports travelled (network) distances
2024-05-13T12:54:07,657  INFO TravelDistanceStats:149 (and teleported legs whose route contains a distance.)
2024-05-13T12:54:11,946  INFO ControlerListenerManagerImpl:168 calling notifyIterationEnds on org.matsim.analysis.LegHistogramListener
2024-05-13T12:54:11,956  INFO LegHistogramListener:73 number of legs:	169670	100%
2024-05-13T12:54:11,958  INFO LegHistogramListener:80 number of car legs:	169670	100.0%
2024-05-13T12:54:12,180  INFO ControlerListenerManagerImpl:168 calling notifyIterationEnds on org.matsim.analysis.LinkStatsControlerListener
2024-05-13T12:54:12,181  INFO ControlerListenerManagerImpl:172 [it.0] all ControlerIterationEndsListeners called.
2024-05-13T12:54:12,285  INFO AbstractController:182 ### ITERATION 0 ENDS
2024-05-13T12:54:12,286  INFO AbstractController:183 ###################################################
2024-05-13T12:54:12,286  INFO AbstractController:134 ###################################################
2024-05-13T12:54:12,286  INFO AbstractController:135 ### ITERATION 1 BEGINS
2024-05-13T12:54:12,286  INFO ControlerListenerManagerImpl:146 calling notifyIterationStarts on org.matsim.analysis.LegHistogramListener
2024-05-13T12:54:12,287  INFO ControlerListenerManagerImpl:146 calling notifyIterationStarts on org.matsim.analysis.LinkStatsControlerListener
2024-05-13T12:54:12,287  INFO ControlerListenerManagerImpl:146 calling notifyIterationStarts on org.matsim.core.replanning.ReplanningContextImpl
2024-05-13T12:54:12,287  INFO ControlerListenerManagerImpl:146 calling notifyIterationStarts on org.matsim.core.scoring.ScoringFunctionsForPopulation$$Lambda$238/0x0000000801335c58
2024-05-13T12:54:12,363  INFO ControlerListenerManagerImpl:146 calling notifyIterationStarts on org.matsim.core.scoring.ExperiencedPlansServiceImpl$1
2024-05-13T12:54:12,376  INFO ControlerListenerManagerImpl:149 [it.1] all ControlerIterationStartsListeners called.
2024-05-13T12:54:12,378  INFO ControlerListenerManagerImpl:206 calling notifyReplanning on org.matsim.core.controler.corelisteners.PlansReplanningImpl
2024-05-13T12:54:12,379  WARN ExpBetaPlanChanger:102 Would make sense to revise this once more.  See comments in code.  kai, nov08
2024-05-13T12:54:12,495  INFO GenericPlanStrategyImpl:127 Plan-Strategy finished, 84835 plans handled. Strategy: ExpBetaPlanChanger
2024-05-13T12:54:12,495  INFO ControlerListenerManagerImpl:214 [it.1] all ControlerReplanningListeners called.
2024-05-13T12:54:12,495  INFO ControlerListenerManagerImpl:225 calling notifyBeforeMobsim on org.matsim.core.controler.corelisteners.EventsHandlingImpl
2024-05-13T12:54:12,495  INFO EventsManagerImpl:168 resetting Event-Handlers
2024-05-13T12:54:12,495  INFO EventsManagerImpl:175   org.matsim.core.trafficmonitoring.TravelTimeCalculator
2024-05-13T12:54:12,496  INFO EventsManagerImpl:175   org.matsim.analysis.VolumesAnalyzer
2024-05-13T12:54:12,497  INFO EventsManagerImpl:175   org.matsim.core.scoring.ScoringFunctionsForPopulation
2024-05-13T12:54:12,499  INFO EventsManagerImpl:175   org.matsim.analysis.LegHistogram
2024-05-13T12:54:12,500  INFO EventsManagerImpl:175   org.matsim.analysis.CalcLegTimes
2024-05-13T12:54:12,500  INFO ControlerListenerManagerImpl:225 calling notifyBeforeMobsim on org.matsim.core.controler.corelisteners.PlansDumpingImpl
2024-05-13T12:54:12,500  INFO PlansDumpingImpl:77 dumping plans...
2024-05-13T12:54:12,575  INFO Counter:70 [PopulationWriter] dumped person # 1
2024-05-13T12:54:12,576  INFO Counter:70 [PopulationWriter] dumped person # 2
2024-05-13T12:54:12,576  INFO Counter:70 [PopulationWriter] dumped person # 4
2024-05-13T12:54:12,576  INFO Counter:70 [PopulationWriter] dumped person # 8
2024-05-13T12:54:12,576  INFO Counter:70 [PopulationWriter] dumped person # 16
2024-05-13T12:54:12,576  INFO Counter:70 [PopulationWriter] dumped person # 32
2024-05-13T12:54:12,577  INFO Counter:70 [PopulationWriter] dumped person # 64
2024-05-13T12:54:12,579  INFO Counter:70 [PopulationWriter] dumped person # 128
2024-05-13T12:54:12,582  INFO Counter:70 [PopulationWriter] dumped person # 256
2024-05-13T12:54:12,592  INFO Counter:70 [PopulationWriter] dumped person # 512
2024-05-13T12:54:12,608  INFO Counter:70 [PopulationWriter] dumped person # 1024
2024-05-13T12:54:12,636  INFO Counter:70 [PopulationWriter] dumped person # 2048
2024-05-13T12:54:12,701  INFO Counter:70 [PopulationWriter] dumped person # 4096
2024-05-13T12:54:12,814  INFO Counter:70 [PopulationWriter] dumped person # 8192
2024-05-13T12:54:12,989  INFO Counter:70 [PopulationWriter] dumped person # 16384
2024-05-13T12:54:13,382  INFO Counter:70 [PopulationWriter] dumped person # 32768
2024-05-13T12:54:14,426  INFO Counter:70 [PopulationWriter] dumped person # 65536
2024-05-13T12:54:14,859  INFO PopulationWriter:145 Population written to: ./output/ITERS/it.1/1.plans.xml.gz
2024-05-13T12:54:14,859  INFO Counter:75 [PopulationWriter] dumped person # 84835
2024-05-13T12:54:14,859  INFO PlansDumpingImpl:94 finished plans dump.
2024-05-13T12:54:14,859  INFO ControlerListenerManagerImpl:230 calling notifyBeforeMobsim on org.matsim.core.population.VspPlansCleaner
2024-05-13T12:54:14,890  INFO ControlerListenerManagerImpl:233 [it.1] all ControlerBeforeMobsimListeners called.
2024-05-13T12:54:14,900  INFO RandomizingTimeDistanceTravelDisutilityFactory:86  sigma: 3.0; resulting normalization: 0.011108996538242306
2024-05-13T12:54:14,909  INFO RandomizingTimeDistanceTravelDisutilityFactory:86  sigma: 3.0; resulting normalization: 0.011108996538242306
2024-05-13T12:54:14,921  INFO Counter:70 [PersonPrepareForSim] handled person # 2
2024-05-13T12:54:14,921  INFO Counter:70 [PersonPrepareForSim] handled person # 1
2024-05-13T12:54:14,922  INFO Counter:70 [PersonPrepareForSim] handled person # 4
2024-05-13T12:54:14,922  INFO Counter:70 [PersonPrepareForSim] handled person # 8
2024-05-13T12:54:14,922  INFO Counter:70 [PersonPrepareForSim] handled person # 16
2024-05-13T12:54:14,922  INFO Counter:70 [PersonPrepareForSim] handled person # 32
2024-05-13T12:54:14,922  INFO Counter:70 [PersonPrepareForSim] handled person # 64
2024-05-13T12:54:14,922  INFO Counter:70 [PersonPrepareForSim] handled person # 128
2024-05-13T12:54:14,923  INFO Counter:70 [PersonPrepareForSim] handled person # 256
2024-05-13T12:54:14,923  INFO Counter:70 [PersonPrepareForSim] handled person # 512
2024-05-13T12:54:14,923  INFO Counter:70 [PersonPrepareForSim] handled person # 1024
2024-05-13T12:54:14,924  INFO Counter:70 [PersonPrepareForSim] handled person # 2048
2024-05-13T12:54:14,925  INFO Counter:70 [PersonPrepareForSim] handled person # 4096
2024-05-13T12:54:14,928  INFO Counter:70 [PersonPrepareForSim] handled person # 8192
2024-05-13T12:54:14,933  INFO Counter:70 [PersonPrepareForSim] handled person # 16384
2024-05-13T12:54:15,000  INFO Counter:70 [PersonPrepareForSim] handled person # 32768
[...]
2024-05-13T12:54:40,493  INFO Counter:70 [PopulationWriter] dumped person # 1024
2024-05-13T12:54:40,513  INFO Counter:70 [PopulationWriter] dumped person # 2048
2024-05-13T12:54:40,552  INFO Counter:70 [PopulationWriter] dumped person # 4096
2024-05-13T12:54:40,653  INFO Counter:70 [PopulationWriter] dumped person # 8192
2024-05-13T12:54:40,852  INFO Counter:70 [PopulationWriter] dumped person # 16384
2024-05-13T12:54:41,250  INFO Counter:70 [PopulationWriter] dumped person # 32768
2024-05-13T12:54:41,947  INFO Counter:70 [PopulationWriter] dumped person # 65536
2024-05-13T12:54:42,360  INFO PopulationWriter:145 Population written to: ./output/ITERS/it.5/5.plans.xml.gz
2024-05-13T12:54:42,360  INFO Counter:75 [PopulationWriter] dumped person # 84835
2024-05-13T12:54:42,360  INFO PlansDumpingImpl:94 finished plans dump.
2024-05-13T12:54:42,361  INFO ControlerListenerManagerImpl:230 calling notifyBeforeMobsim on org.matsim.core.population.VspPlansCleaner
2024-05-13T12:54:42,391  INFO ControlerListenerManagerImpl:233 [it.5] all ControlerBeforeMobsimListeners called.
2024-05-13T12:54:42,421  INFO Counter:70 [PersonPrepareForSim] handled person # 2
2024-05-13T12:54:42,421  INFO Counter:70 [PersonPrepareForSim] handled person # 1
2024-05-13T12:54:42,422  INFO Counter:70 [PersonPrepareForSim] handled person # 4
2024-05-13T12:54:42,422  INFO Counter:70 [PersonPrepareForSim] handled person # 8
2024-05-13T12:54:42,422  INFO Counter:70 [PersonPrepareForSim] handled person # 16
2024-05-13T12:54:42,422  INFO Counter:70 [PersonPrepareForSim] handled person # 32
2024-05-13T12:54:42,422  INFO Counter:70 [PersonPrepareForSim] handled person # 64
2024-05-13T12:54:42,422  INFO Counter:70 [PersonPrepareForSim] handled person # 128
2024-05-13T12:54:42,422  INFO Counter:70 [PersonPrepareForSim] handled person # 256
2024-05-13T12:54:42,422  INFO Counter:70 [PersonPrepareForSim] handled person # 512
2024-05-13T12:54:42,423  INFO Counter:70 [PersonPrepareForSim] handled person # 1024
2024-05-13T12:54:42,423  INFO Counter:70 [PersonPrepareForSim] handled person # 2048
2024-05-13T12:54:42,424  INFO Counter:70 [PersonPrepareForSim] handled person # 4096
2024-05-13T12:54:42,426  INFO Counter:70 [PersonPrepareForSim] handled person # 8192
2024-05-13T12:54:42,431  INFO Counter:70 [PersonPrepareForSim] handled person # 16384
2024-05-13T12:54:42,439  INFO Counter:70 [PersonPrepareForSim] handled person # 32768
2024-05-13T12:54:42,456  INFO Counter:70 [PersonPrepareForSim] handled person # 65536
2024-05-13T12:54:42,472  INFO Counter:75 [PersonPrepareForSim] handled person # 84835
2024-05-13T12:54:42,483  INFO MobsimListenerManager:50 calling addQueueSimulationListener
2024-05-13T12:54:42,483  INFO MobsimListenerManager:54   assigned class org.matsim.core.mobsim.framework.listeners.MobsimListener to interface org.matsim.vis.snapshotwriters.SnapshotWriterManager
2024-05-13T12:54:42,483  INFO MobsimListenerManager:54   assigned class org.matsim.core.mobsim.framework.listeners.MobsimListener to interface org.matsim.core.mobsim.framework.listeners.MobsimAfterSimStepListener
2024-05-13T12:54:42,483  INFO MobsimListenerManager:54   assigned class org.matsim.core.mobsim.framework.listeners.MobsimListener to interface org.matsim.core.mobsim.framework.listeners.MobsimListener
2024-05-13T12:54:42,483  INFO MobsimListenerManager:54   assigned class org.matsim.core.mobsim.framework.listeners.MobsimListener to interface org.matsim.core.mobsim.framework.listeners.MobsimBeforeCleanupListener
2024-05-13T12:54:42,483  INFO MobsimListenerManager:54   assigned class org.matsim.core.mobsim.framework.listeners.MobsimListener to interface org.matsim.core.mobsim.framework.listeners.MobsimInitializedListener
2024-05-13T12:54:42,821  INFO QSimProvider:131 Added MobsimEngine class org.matsim.core.mobsim.qsim.ActivityEngineDefaultImpl
2024-05-13T12:54:42,822  INFO QSimProvider:137 Added Activityhandler class org.matsim.core.mobsim.qsim.ActivityEngineDefaultImpl
2024-05-13T12:54:42,822  INFO QSimProvider:143 Added DepartureHandler class org.matsim.core.mobsim.qsim.qnetsimengine.VehicularDepartureHandler
2024-05-13T12:54:42,822  INFO QSimProvider:131 Added MobsimEngine class org.matsim.core.mobsim.qsim.qnetsimengine.QNetsimEngineWithThreadpool
2024-05-13T12:54:42,822  INFO QSimProvider:131 Added MobsimEngine class org.matsim.core.mobsim.qsim.DefaultTeleportationEngine
2024-05-13T12:54:42,822  INFO QSimProvider:143 Added DepartureHandler class org.matsim.core.mobsim.qsim.DefaultTeleportationEngine
2024-05-13T12:54:42,822  INFO QSimProvider:149 Added AgentSource class org.matsim.core.mobsim.qsim.agents.PopulationAgentSource
2024-05-13T12:54:42,822  INFO MobsimListenerManager:50 calling addQueueSimulationListener
2024-05-13T12:54:42,822  INFO MobsimListenerManager:54   assigned class org.matsim.core.mobsim.framework.listeners.MobsimListener to interface org.matsim.core.mobsim.framework.listeners.MobsimBeforeSimStepListener
2024-05-13T12:54:42,822  INFO MobsimListenerManager:54   assigned class org.matsim.core.mobsim.framework.listeners.MobsimListener to interface org.matsim.core.mobsim.framework.listeners.MobsimListener
2024-05-13T12:54:42,822  INFO MobsimListenerManager:54   assigned class org.matsim.core.mobsim.framework.listeners.MobsimListener to interface org.matsim.core.mobsim.qsim.messagequeueengine.MessageQueueEngine
2024-05-13T12:54:42,822  INFO QSimProvider:155 Added MobsimListener class org.matsim.core.mobsim.qsim.messagequeueengine.MessageQueueEngine
2024-05-13T12:54:43,160  INFO AbstractQNetsimEngine:428 Assigned 106802 nodes and 242617 links to QSimEngineRunner #0
2024-05-13T12:54:43,899  INFO AbstractQNetsimEngine:366 SIMULATION (QNetsimEngine) AT 08:00:00 : #links=0 #nodes=0
2024-05-13T12:54:43,956  INFO QSim:566 SIMULATION (NEW QSim) AT 08:00:00 : #Veh=84835 lost=0 simT=0.0s realT=1s; (s/r): 0.0
2024-05-13T12:54:46,829  INFO AbstractQNetsimEngine:366 SIMULATION (QNetsimEngine) AT 09:00:00 : #links=0 #nodes=0
2024-05-13T12:54:46,829  INFO QSim:566 SIMULATION (NEW QSim) AT 09:00:00 : #Veh=84835 lost=0 simT=3600.0s realT=4s; (s/r): 900.0
2024-05-13T12:54:47,141  INFO AbstractQNetsimEngine:366 SIMULATION (QNetsimEngine) AT 10:00:00 : #links=0 #nodes=0
2024-05-13T12:54:47,141  INFO QSim:566 SIMULATION (NEW QSim) AT 10:00:00 : #Veh=84835 lost=0 simT=7200.0s realT=4s; (s/r): 1800.0
2024-05-13T12:54:47,444  INFO AbstractQNetsimEngine:366 SIMULATION (QNetsimEngine) AT 11:00:00 : #links=0 #nodes=0
2024-05-13T12:54:47,444  INFO QSim:566 SIMULATION (NEW QSim) AT 11:00:00 : #Veh=84835 lost=0 simT=10800.0s realT=4s; (s/r): 2700.0
2024-05-13T12:54:47,739  INFO AbstractQNetsimEngine:366 SIMULATION (QNetsimEngine) AT 12:00:00 : #links=0 #nodes=0
2024-05-13T12:54:47,739  INFO QSim:566 SIMULATION (NEW QSim) AT 12:00:00 : #Veh=84835 lost=0 simT=14400.0s realT=5s; (s/r): 2880.0
2024-05-13T12:54:48,026  INFO AbstractQNetsimEngine:366 SIMULATION (QNetsimEngine) AT 13:00:00 : #links=0 #nodes=0
2024-05-13T12:54:48,026  INFO QSim:566 SIMULATION (NEW QSim) AT 13:00:00 : #Veh=84835 lost=0 simT=18000.0s realT=5s; (s/r): 3600.0
2024-05-13T12:54:48,302  INFO AbstractQNetsimEngine:366 SIMULATION (QNetsimEngine) AT 14:00:00 : #links=0 #nodes=0
2024-05-13T12:54:48,302  INFO QSim:566 SIMULATION (NEW QSim) AT 14:00:00 : #Veh=84835 lost=0 simT=21600.0s realT=5s; (s/r): 4320.0
2024-05-13T12:54:48,598  INFO AbstractQNetsimEngine:366 SIMULATION (QNetsimEngine) AT 15:00:00 : #links=0 #nodes=0
2024-05-13T12:54:48,598  INFO QSim:566 SIMULATION (NEW QSim) AT 15:00:00 : #Veh=84835 lost=0 simT=25200.0s realT=6s; (s/r): 4200.0
2024-05-13T12:54:48,877  INFO AbstractQNetsimEngine:366 SIMULATION (QNetsimEngine) AT 16:00:00 : #links=0 #nodes=0
2024-05-13T12:54:48,877  INFO QSim:566 SIMULATION (NEW QSim) AT 16:00:00 : #Veh=84835 lost=0 simT=28800.0s realT=6s; (s/r): 4800.0
2024-05-13T12:54:49,149  INFO AbstractQNetsimEngine:366 SIMULATION (QNetsimEngine) AT 17:00:00 : #links=0 #nodes=0
2024-05-13T12:54:49,149  INFO QSim:566 SIMULATION (NEW QSim) AT 17:00:00 : #Veh=84835 lost=0 simT=32400.0s realT=6s; (s/r): 5400.0
2024-05-13T12:54:52,512  INFO AbstractController$9:235 ### ITERATION 5 fires after mobsim event
2024-05-13T12:54:52,513  INFO ControlerListenerManagerImpl:249 calling notifyAfterMobsim on org.matsim.analysis.LegTimesControlerListener
2024-05-13T12:54:52,512  INFO Gbl:192 Thread performance: Thread=class org.matsim.core.events.SimStepParallelEventsManagerImpl$ProcessEventsRunnable0  cpu-time=3.59375sec
2024-05-13T12:54:52,514  INFO LegTimesControlerListener:51 [5] average trip (probably: leg) duration is: 0 seconds = 00:00:00
2024-05-13T12:54:52,514  INFO ControlerListenerManagerImpl:249 calling notifyAfterMobsim on org.matsim.core.events.MobsimScopeEventHandling
2024-05-13T12:54:52,514  INFO ControlerListenerManagerImpl:249 calling notifyAfterMobsim on org.matsim.core.scoring.EventsToActivities$1
2024-05-13T12:54:52,547  INFO ControlerListenerManagerImpl:252 [it.5] all ControlerAfterMobsimListeners called.
2024-05-13T12:54:52,547  INFO AbstractController$4:160 ### ITERATION 5 fires scoring event
2024-05-13T12:54:52,547  INFO ControlerListenerManagerImpl:184 calling notifyScoring on org.matsim.core.scoring.PlansScoringImpl
2024-05-13T12:54:52,578  INFO NewScoreAssignerImpl:58 it: 5 msaStart: null
2024-05-13T12:54:52,599  INFO ControlerListenerManagerImpl:195 [it.5] all ControlerScoringListeners called.
2024-05-13T12:54:52,600  INFO AbstractController$5:168 ### ITERATION 5 fires iteration end event
2024-05-13T12:54:52,600  INFO ControlerListenerManagerImpl:161 calling notifyIterationEnds on org.matsim.core.controler.corelisteners.EventsHandlingImpl
2024-05-13T12:54:52,600  INFO EventsManagerImpl:159 removing Event-Handler: org.matsim.core.events.algorithms.EventWriterXML
2024-05-13T12:54:52,600  INFO EventsManagerImpl:159 removing Event-Handler: org.matsim.core.events.algorithms.EventWriterXML
2024-05-13T12:54:52,600  INFO ControlerListenerManagerImpl:161 calling notifyIterationEnds on org.matsim.core.scoring.PlansScoringImpl
2024-05-13T12:54:52,621  INFO ControlerListenerManagerImpl:168 calling notifyIterationEnds on org.matsim.counts.CountsControlerListener
2024-05-13T12:54:52,621  INFO ControlerListenerManagerImpl:168 calling notifyIterationEnds on org.matsim.analysis.ModeStatsControlerListener
2024-05-13T12:54:52,745  INFO ModeStatsControlerListener:145 Mode shares over all 169670.0 trips found. MainModeIdentifier: class org.matsim.core.router.RoutingModeMainModeIdentifier
2024-05-13T12:54:52,745  INFO ModeStatsControlerListener:152 -- mode share of mode car = 1.0
2024-05-13T12:54:52,828  INFO ControlerListenerManagerImpl:168 calling notifyIterationEnds on org.matsim.analysis.ScoreStatsControlerListener
2024-05-13T12:54:52,834  INFO ScoreStatsControlerListener:182 -- avg. score of the executed plan of each agent: 141.87423630629968
2024-05-13T12:54:52,835  INFO ScoreStatsControlerListener:183 -- avg. score of the worst plan of each agent: 141.87423630629968
2024-05-13T12:54:52,835  INFO ScoreStatsControlerListener:184 -- avg. of the avg. plan score per agent: 141.87423630629968
2024-05-13T12:54:52,835  INFO ScoreStatsControlerListener:185 -- avg. score of the best plan of each agent: 141.87423630629968
2024-05-13T12:54:52,867  INFO ControlerListenerManagerImpl:168 calling notifyIterationEnds on org.matsim.analysis.IterationTravelStatsControlerListener
2024-05-13T12:54:52,959  INFO TravelDistanceStats:144 -- average leg distance per plan (executed plans only): 0.0 meters
2024-05-13T12:54:52,959  INFO TravelDistanceStats:145 average leg distance per Person (executed plans only): 0.0 meters (statistic on all 169670 legs which have a finite distance)
2024-05-13T12:54:52,960  INFO TravelDistanceStats:146 -- average trip distance per plan (executed plans only): 0.0 meters
2024-05-13T12:54:52,960  INFO TravelDistanceStats:147 average trip distance per Person (executed plans only): 0.0 meters (statistic on all 169670 trips which have a finite distance)
2024-05-13T12:54:52,960  INFO TravelDistanceStats:148 (TravelDistanceStats takes an average over all legs where the simulation reports travelled (network) distances
2024-05-13T12:54:52,960  INFO TravelDistanceStats:149 (and teleported legs whose route contains a distance.)
2024-05-13T12:54:56,135  INFO ControlerListenerManagerImpl:168 calling notifyIterationEnds on org.matsim.analysis.LegHistogramListener
2024-05-13T12:54:56,138  INFO LegHistogramListener:73 number of legs:	169670	100%
2024-05-13T12:54:56,138  INFO LegHistogramListener:80 number of car legs:	169670	100.0%
2024-05-13T12:54:56,256  INFO ControlerListenerManagerImpl:168 calling notifyIterationEnds on org.matsim.analysis.LinkStatsControlerListener
2024-05-13T12:54:56,257  INFO ControlerListenerManagerImpl:172 [it.5] all ControlerIterationEndsListeners called.
2024-05-13T12:54:56,318  INFO AbstractController:182 ### ITERATION 5 ENDS
2024-05-13T12:54:56,318  INFO AbstractController:183 ###################################################
2024-05-13T12:54:56,318  INFO MatsimRuntimeModifications:80 S H U T D O W N   ---   start shutdown.
2024-05-13T12:54:56,318  INFO ControlerListenerManagerImpl:122 calling notifyShutdown on org.matsim.core.controler.corelisteners.EventsHandlingImpl
2024-05-13T12:54:56,319  INFO ControlerListenerManagerImpl:122 calling notifyShutdown on org.matsim.core.controler.corelisteners.DumpDataAtEndImpl
2024-05-13T12:54:56,367  INFO Counter:70 [PopulationWriter] dumped person # 1
2024-05-13T12:54:56,367  INFO Counter:70 [PopulationWriter] dumped person # 2
2024-05-13T12:54:56,367  INFO Counter:70 [PopulationWriter] dumped person # 4
2024-05-13T12:54:56,367  INFO Counter:70 [PopulationWriter] dumped person # 8
2024-05-13T12:54:56,368  INFO Counter:70 [PopulationWriter] dumped person # 16
2024-05-13T12:54:56,368  INFO Counter:70 [PopulationWriter] dumped person # 32
2024-05-13T12:54:56,369  INFO Counter:70 [PopulationWriter] dumped person # 64
2024-05-13T12:54:56,372  INFO Counter:70 [PopulationWriter] dumped person # 128
2024-05-13T12:54:56,376  INFO Counter:70 [PopulationWriter] dumped person # 256
2024-05-13T12:54:56,384  INFO Counter:70 [PopulationWriter] dumped person # 512
2024-05-13T12:54:56,401  INFO Counter:70 [PopulationWriter] dumped person # 1024
2024-05-13T12:54:56,430  INFO Counter:70 [PopulationWriter] dumped person # 2048
2024-05-13T12:54:56,491  INFO Counter:70 [PopulationWriter] dumped person # 4096
2024-05-13T12:54:56,598  INFO Counter:70 [PopulationWriter] dumped person # 8192
2024-05-13T12:54:56,781  INFO Counter:70 [PopulationWriter] dumped person # 16384
2024-05-13T12:54:57,137  INFO Counter:70 [PopulationWriter] dumped person # 32768
2024-05-13T12:54:57,813  INFO Counter:70 [PopulationWriter] dumped person # 65536
2024-05-13T12:54:58,208  INFO PopulationWriter:145 Population written to: ./output/output_plans.xml.gz
2024-05-13T12:54:58,208  INFO Counter:75 [PopulationWriter] dumped person # 84835
2024-05-13T12:54:58,211  INFO NetworkWriter:70 Writing network to file: ./output/output_network.xml.gz...
2024-05-13T12:55:00,222  INFO NetworkWriter:73 done.
2024-05-13T12:55:00,230  INFO Config:602 setting context to [file:/C:/Users/THAO/Desktop/matsim-example-project/]
2024-05-13T12:55:00,232  INFO Config:602 setting context to [file:/C:/Users/THAO/Desktop/matsim-example-project/]
2024-05-13T12:55:00,233  INFO Config:602 setting context to [file:/C:/Users/THAO/Desktop/matsim-example-project/]
2024-05-13T12:55:00,236  INFO Config:602 setting context to [file:/C:/Users/THAO/Desktop/matsim-example-project/]
2024-05-13T12:55:00,236  INFO Config:602 setting context to [file:/C:/Users/THAO/Desktop/matsim-example-project/]
2024-05-13T12:55:00,238  INFO Config:602 setting context to [file:/C:/Users/THAO/Desktop/matsim-example-project/]
2024-05-13T12:55:00,238  INFO Config:602 setting context to [file:/C:/Users/THAO/Desktop/matsim-example-project/]
2024-05-13T12:55:00,240  INFO Config:602 setting context to [file:/C:/Users/THAO/Desktop/matsim-example-project/]
2024-05-13T12:55:00,240  INFO Config:602 setting context to [file:/C:/Users/THAO/Desktop/matsim-example-project/]
2024-05-13T12:55:00,241  INFO Config:602 setting context to [file:/C:/Users/THAO/Desktop/matsim-example-project/]
2024-05-13T12:55:00,242  INFO Config:602 setting context to [file:/C:/Users/THAO/Desktop/matsim-example-project/]
2024-05-13T12:55:00,243  INFO Config:602 setting context to [file:/C:/Users/THAO/Desktop/matsim-example-project/]
2024-05-13T12:55:00,243  INFO Config:602 setting context to [file:/C:/Users/THAO/Desktop/matsim-example-project/]
2024-05-13T12:55:00,244  INFO Config:602 setting context to [file:/C:/Users/THAO/Desktop/matsim-example-project/]
2024-05-13T12:55:00,248  INFO Config:602 setting context to [file:/C:/Users/THAO/Desktop/matsim-example-project/]
2024-05-13T12:55:00,249  INFO Config:602 setting context to [file:/C:/Users/THAO/Desktop/matsim-example-project/]
2024-05-13T12:55:00,250  WARN PlansCalcRouteConfigGroup:378 The first mode routing (= teleported mode) params that are explicitly defined clear the default mode routing (= teleported mode) params.  If you want to avoid this 
2024-05-13T12:55:00,250  WARN PlansCalcRouteConfigGroup:379     warning, use clearTeleportedModeParams(true) in code, and "clearDefaultTeleportedModeParams"=true in xml config.
2024-05-13T12:55:00,250  INFO Config:602 setting context to [file:/C:/Users/THAO/Desktop/matsim-example-project/]
2024-05-13T12:55:00,250  INFO Config:602 setting context to [file:/C:/Users/THAO/Desktop/matsim-example-project/]
2024-05-13T12:55:00,254  INFO Config:602 setting context to [file:/C:/Users/THAO/Desktop/matsim-example-project/]
2024-05-13T12:55:00,254  INFO Config:602 setting context to [file:/C:/Users/THAO/Desktop/matsim-example-project/]
2024-05-13T12:55:00,255  INFO Config:602 setting context to [file:/C:/Users/THAO/Desktop/matsim-example-project/]
2024-05-13T12:55:00,255  INFO Config:602 setting context to [file:/C:/Users/THAO/Desktop/matsim-example-project/]
2024-05-13T12:55:00,256  INFO Config:602 setting context to [file:/C:/Users/THAO/Desktop/matsim-example-project/]
2024-05-13T12:55:00,256  INFO Config:602 setting context to [file:/C:/Users/THAO/Desktop/matsim-example-project/]
2024-05-13T12:55:00,257  INFO Config:602 setting context to [file:/C:/Users/THAO/Desktop/matsim-example-project/]
2024-05-13T12:55:00,258  INFO Config:602 setting context to [file:/C:/Users/THAO/Desktop/matsim-example-project/]
2024-05-13T12:55:00,263  INFO MatsimVehicleWriter:55 about to write vehicles to: ./output/output_vehicles.xml.gz
2024-05-13T12:55:00,263  INFO VehicleWriterV2:64 about to write vehicles to: ./output/output_vehicles.xml.gz
2024-05-13T12:55:00,485  INFO MatsimVehicleWriter:55 about to write vehicles to: ./output/output_allVehicles.xml.gz
2024-05-13T12:55:00,485  INFO VehicleWriterV2:64 about to write vehicles to: ./output/output_allVehicles.xml.gz
2024-05-13T12:55:00,647  INFO HouseholdsWriterV10:67 about to write  households to: ./output/output_households.xml.gz
2024-05-13T12:55:00,649  INFO Counter:75 [HouseholdsWriter] wrote household # 0
2024-05-13T12:55:00,674  INFO ControlerListenerManagerImpl:127 calling notifyShutdown on org.matsim.analysis.ScoreStatsControlerListener
2024-05-13T12:55:00,674  INFO ControlerListenerManagerImpl:127 calling notifyShutdown on org.matsim.analysis.IterationTravelStatsControlerListener
2024-05-13T12:55:00,675  INFO IterationTravelStatsControlerListener:109 Writing all Person and Attributes to personscsv
2024-05-13T12:55:01,156  INFO IterationTravelStatsControlerListener:153 ...done
2024-05-13T12:55:01,157  INFO ControlerListenerManagerImpl:130 all ControlerShutdownListeners called.
2024-05-13T12:55:01,157  INFO MatsimRuntimeModifications:103 S H U T D O W N   ---   shutdown completed.
2024-05-13T12:55:01,157  INFO OutputDirectoryLogging:171 closing the logfile, i.e. messages sent to the logger after this message are not written to the logfile.
