2024-05-13T07:47:09,658  INFO Gbl:64 JVM: 19.0.1; Oracle Corporation; mixed mode, sharing; 64-bit
2024-05-13T07:47:09,659  INFO Gbl:68 OS: Windows 11; 10.0; amd64
2024-05-13T07:47:09,660  INFO Gbl:71 CPU cores: 16
2024-05-13T07:47:09,663  INFO Gbl:72 max. Memory: 1842.0MB (1931476992B)
2024-05-13T07:47:09,664  INFO Gbl:110 MATSim-Build: ra76d70e12c1ca93f702007bdf2cc365001d5f50e (2023-04-12 08:36:22)
2024-05-13T07:47:09,669  INFO ControlerListenerManagerImpl:108 calling notifyStartup on org.matsim.core.controler.ControlerDefaultsModule$1
2024-05-13T07:47:09,674  INFO MemoryObserver:42 used RAM: 511 MB  free: 462 MB  total: 974 MB
2024-05-13T07:47:09,824  INFO ControlerListenerManagerImpl:108 calling notifyStartup on org.matsim.guice.DependencyGraphControlerListener
2024-05-13T07:47:09,980  INFO ControlerListenerManagerImpl:108 calling notifyStartup on org.matsim.counts.CountsControlerListener
2024-05-13T07:47:09,980  INFO ControlerListenerManagerImpl:108 calling notifyStartup on org.matsim.analysis.ModeStatsControlerListener
2024-05-13T07:47:09,980  INFO ControlerListenerManagerImpl:108 calling notifyStartup on org.matsim.analysis.ScoreStatsControlerListener
2024-05-13T07:47:09,981  INFO ControlerListenerManagerImpl:111 all ControlerStartupListeners called.
2024-05-13T07:47:09,982  INFO ControlerUtils:80 config dump before iterations start
2024-05-13T07:47:10,011  INFO ControlerUtils:84 

<?xml version="1.0" encoding="UTF-8"?>
<!DOCTYPE config SYSTEM "http://www.matsim.org/files/dtd/config_v2.dtd">
<config>
	<module name="JDEQSim" >
		<param name="carSize" value="7.5" />
		<param name="endTime" value="undefined" />
		<param name="flowCapacityFactor" value="1.0" />
		<param name="gapTravelSpeed" value="15.0" />
		<param name="minimumInFlowCapacity" value="1800.0" />
		<param name="squeezeTime" value="1800.0" />
		<param name="storageCapacityFactor" value="1.0" />
	</module>
	<module name="ReplanningAnnealer" >
		<!-- Activate the scaling of replanning modules using an annealing approach rather than fixed rates. -->
		<param name="activateAnnealingModule" value="false" />
	</module>
	<module name="TimeAllocationMutator" >
		<!-- Default:true; Defines whether time mutation changes an activity's duration. -->
		<param name="mutationAffectsDuration" value="true" />
		<!-- Default:1800.0; Defines how many seconds a time mutation can maximally shift a time. -->
		<param name="mutationRange" value="1800.0" />
	</module>
	<module name="changeMode" >
		<!-- Defines whether car availability is considered be considered or not. An agent has no car only if it has no license, or never access to a car. Default: true -->
		<param name="ignoreCarAvailability" value="true" />
		<!-- Defines the mode switch behavior. Possible values [fromAllModesToSpecifiedModes, fromSpecifiedModesToSpecifiedModes] Default: fromSpecifiedModesToSpecifiedModes. -->
		<param name="modeSwitchBehavior" value="fromSpecifiedModesToSpecifiedModes" />
		<!-- Defines all the modes available, including chain-based modes, seperated by commas -->
		<param name="modes" value="car,pt" />
	</module>
	<module name="controler" >
		<!-- Defines what should be done with the ITERS directory when a simulation finished successfully -->
		<param name="cleanItersAtEnd" value="keep" />
		<!-- Compression algorithm to use when writing out data to files. Possible values: [none, gzip, lz4, zst] -->
		<param name="compressionType" value="gzip" />
		<!-- Sets whether graphs showing some analyses should automatically be generated during the simulation. The generation of graphs usually takes a small amount of time that does not have any weight in big simulations, but add a significant overhead in smaller runs or in test cases where the graphical output is not even requested. -->
		<param name="createGraphs" value="true" />
		<!-- Defines when the scoring functions for the population are created. Default=IterationStarts. Possible values: [IterationStarts, BeforeMobsim] -->
		<param name="createScoringFunctionType" value="IterationStarts" />
		<!-- true if at the end of a run, plans, network, config etc should be dumped to a file -->
		<param name="dumpDataAtEnd" value="true" />
		<!-- Default=false. If enabled, the router takes travel times needed for turning moves into account. Cannot be used if the (Fast)AStarLandmarks routing or TravelTimeCalculator.separateModes is enabled. -->
		<param name="enableLinkToLinkRouting" value="false" />
		<!-- Default=xml; Specifies the file format for writing events. Currently supported: [xml, pb, json]
		Multiple values can be specified separated by commas (','). -->
		<param name="eventsFileFormat" value="xml" />
		<!-- Default=0. First Iteration of a simulation. -->
		<param name="firstIteration" value="0" />
		<!-- Default=1000. Last Iteration of a simulation. -->
		<param name="lastIteration" value="5" />
		<!-- Defines which mobility simulation will be used. Currently supported: qsim JDEQSim hermes 
		Depending on the chosen mobsim, you'll have to add additional config modules to configure the corresponding mobsim.
		For 'qsim', add a module 'qsim' to the config. -->
		<param name="mobsim" value="qsim" />
		<param name="outputDirectory" value="./output" />
		<!-- Possible values: failIfDirectoryExists,overwriteExistingFiles,deleteDirectoryIfExists -->
		<param name="overwriteFiles" value="deleteDirectoryIfExists" />
		<!-- The type of routing (least cost path) algorithm used, may have the values: [Dijkstra, AStarLandmarks, FastDijkstra, FastAStarLandmarks, SpeedyALT] -->
		<param name="routingAlgorithmType" value="AStarLandmarks" />
		<!-- An identifier for the current run which is used as prefix for output files and mentioned in output xml files etc. -->
		<param name="runId" value="null" />
		<!-- Comma-separated list of visualizer output file formats. `transims' and `otfvis'. -->
		<param name="snapshotFormat" value="" />
		<!-- iterationNumber % writeEventsInterval == 0 defines in which iterations events are written to a file. `0' disables events writing completely. -->
		<param name="writeEventsInterval" value="5" />
		<!-- iterationNumber % writePlansInterval == 0 defines (hopefully) in which iterations plans are written to a file. `0' disables plans writing completely.  Some plans in early iterations are always written -->
		<param name="writePlansInterval" value="5" />
		<!-- iterationNumber % writeSnapshotsInterval == 0 defines in which iterations snapshots are written to a file. `0' disables snapshots writing completely -->
		<param name="writeSnapshotsInterval" value="1" />
		<!-- iterationNumber % writeEventsInterval == 0 defines in which iterations trips CSV are written to a file. `0' disables trips writing completely. -->
		<param name="writeTripsInterval" value="50" />
	</module>
	<module name="counts" >
		<!-- Transport modes that will be respected for the counts comparison. 'car' is default, which includes also bussed from the pt simulation module. Use this parameter in combination with 'filterModes' = true! -->
		<param name="analyzedModes" value="car" />
		<!-- Specifies over how many iterations the link volumes should be averaged that are used for the counts comparison. Use 1 or 0 to only use the link volumes of a single iteration. This values cannot be larger than the value specified for writeCountsInterval -->
		<param name="averageCountsOverIterations" value="5" />
		<!-- factor by which to re-scale the simulated values.  necessary when simulation runs with something different from 100%.  needs to be adapted manually -->
		<param name="countsScaleFactor" value="1.0" />
		<!-- distance to distanceFilterCenterNode to include counting stations. The unit of distance is the Euclidean distance implied by the coordinate system -->
		<param name="distanceFilter" value="null" />
		<!-- node id for center node of distance filter -->
		<param name="distanceFilterCenterNode" value="null" />
		<!-- If true, link counts from legs performed on modes not included in the 'analyzedModes' parameter are ignored. -->
		<param name="filterModes" value="false" />
		<!-- The Coordinates Reference System in which the coordinates are expressed in the input file. At import, the coordinates will be converted to the coordinate system defined in "global", and willbe converted back at export. If not specified, no conversion happens. -->
		<param name="inputCRS" value="null" />
		<!-- input file name to counts package -->
		<param name="inputCountsFile" value="null" />
		<!-- possible values: `html', `txt', `all' -->
		<param name="outputformat" value="txt" />
		<!-- Specifies how often the counts comparison should be calculated and written. -->
		<param name="writeCountsInterval" value="10" />
	</module>
	<module name="facilities" >
		<!-- This defines how facilities should be created. Possible values: none fromFile setInScenario onePerActivityLinkInPlansFile onePerActivityLinkInPlansFileExceptWhenCoordinatesAreGiven onePerActivityLocationInPlansFile  -->
		<param name="facilitiesSource" value="none" />
		<!-- A prefix to be used for auto-generated IDs. -->
		<param name="idPrefix" value="f_auto_" />
		<!-- The Coordinates Reference System in which the coordinates are expressed in the input file. At import, the coordinates will be converted to the coordinate system defined in "global", and willbe converted back at export. If not specified, no conversion happens. -->
		<param name="inputCRS" value="null" />
		<param name="inputFacilitiesFile" value="null" />
		<param name="inputFacilityAttributesFile" value="null" />
		<param name="insistingOnUsingDeprecatedFacilitiesAttributeFile" value="false" />
	</module>
	<module name="global" >
		<param name="coordinateSystem" value="EPSG:4756" />
		<param name="defaultDelimiter" value=";" />
		<param name="insistingOnDeprecatedConfigVersion" value="true" />
		<!-- "global" number of threads.  This number is used, e.g., for replanning, but NOT in QSim.  This can typically be set to as many cores as you have available, or possibly even slightly more. -->
		<param name="numberOfThreads" value="2" />
		<param name="randomSeed" value="4711" />
	</module>
	<module name="hermes" >
		<!-- Simulation End Time -->
		<param name="endTime" value="30:00:00" />
		<param name="flowCapacityFactor" value="1.0" />
		<param name="mainMode" value="car" />
		<param name="storageCapacityFactor" value="1.0" />
		<!-- time in seconds.  Time after which the frontmost vehicle on a link is called `stuck' if it does not move. Set to Integer.MAX_VALUE to disable this behavior -->
		<param name="stuckTime" value="10" />
		<!-- treats PT as deterministic. PT vehicles will run with a steady speed. Should be used with separate network layers for PT and other network modes. -->
		<param name="useDeterministicPt" value="false" />
	</module>
	<module name="households" >
		<param name="inputFile" value="null" />
		<param name="inputHouseholdAttributesFile" value="null" />
		<param name="insistingOnUsingDeprecatedHouseholdsAttributeFile" value="false" />
	</module>
	<module name="linkStats" >
		<!-- Specifies over how many iterations the link volumes should be averaged that are used for the link statistics. Use 1 or 0 to only use the link volumes of a single iteration. This values cannot be larger than the value specified for writeLinkStatsInterval -->
		<param name="averageLinkStatsOverIterations" value="5" />
		<!-- Specifies how often the link stats should be calculated and written. Use 0 to disable the generation of link stats. -->
		<param name="writeLinkStatsInterval" value="50" />
	</module>
	<module name="network" >
		<!-- The Coordinates Reference System in which the coordinates are expressed in the input file. At import, the coordinates will be converted to the coordinate system defined in "global", and willbe converted back at export. If not specified, no conversion happens. -->
		<param name="inputCRS" value="null" />
		<param name="inputChangeEventsFile" value="null" />
		<param name="inputNetworkFile" value="saigon.xml" />
		<param name="laneDefinitionsFile" value="null" />
		<param name="timeVariantNetwork" value="false" />
	</module>
	<module name="parallelEventHandling" >
		<!-- Estimated number of events during mobsim run. An optional optimization hint for the framework. -->
		<param name="estimatedNumberOfEvents" value="null" />
		<!-- Size of the events Queue. Increase for very large scenarios -->
		<param name="eventsQueueSize" value="131072" />
		<!-- Number of threads for parallel events handler. _null_ means the framework decides by itself. 0 is currently not possible. -->
		<param name="numberOfThreads" value="null" />
		<!-- If enabled, each event handler is assigned to its own thread. Note that enabling this feature disabled the numberOfThreads option! This feature is still experimental! -->
		<param name="oneThreadPerHandler" value="false" />
		<!-- If enabled, it is ensured that all events that are created during a time step of the mobility simulation are processed before the next time step is simulated. E.g. neccessary when within-day replanning is used. -->
		<param name="synchronizeOnSimSteps" value="true" />
	</module>
	<module name="planCalcScore" >
		<!-- logit model scale parameter. default: 1.  Has name and default value for historical reasons (see Bryan Raney's phd thesis). -->
		<param name="BrainExpBeta" value="1.0" />
		<param name="PathSizeLogitBeta" value="1.0" />
		<!-- fraction of iterations at which MSA score averaging is started. The matsim theory department suggests to use this together with switching off choice set innovation (where a similar switch exists), but it has not been tested yet. -->
		<param name="fractionOfIterationsToStartScoreMSA" value="null" />
		<!-- new_score = (1-learningRate)*old_score + learningRate * score_from_mobsim.  learning rates close to zero emulate score averaging, but slow down initial convergence -->
		<param name="learningRate" value="1.0" />
		<!-- There used to be a plateau between duration=0 and duration=zeroUtilityDuration. This caused durations to evolve to zero once they were below zeroUtilityDuration, causing problems.  Only use this switch if you need to be backwards compatible with some old results.  (changed nov'13) -->
		<param name="usingOldScoringBelowZeroUtilityDuration" value="false" />
		<!-- write a plans file in each iteration directory which contains what each agent actually did, and the score it received. -->
		<param name="writeExperiencedPlans" value="false" />
		<parameterset type="scoringParameters" >
			<param name="earlyDeparture" value="-0.0" />
			<param name="lateArrival" value="-18.0" />
			<param name="marginalUtilityOfMoney" value="1.0" />
			<param name="performing" value="6.0" />
			<param name="subpopulation" value="null" />
			<param name="utilityOfLineSwitch" value="-1.0" />
			<param name="waiting" value="-0.0" />
			<param name="waitingPt" value="-6.0" />
			<parameterset type="activityParams" >
				<param name="activityType" value="dummy" />
				<param name="closingTime" value="undefined" />
				<param name="earliestEndTime" value="undefined" />
				<param name="latestStartTime" value="undefined" />
				<param name="minimalDuration" value="undefined" />
				<param name="openingTime" value="undefined" />
				<param name="priority" value="1.0" />
				<param name="scoringThisActivityAtAll" value="true" />
				<!-- typical duration of activity.  needs to be defined and non-zero.  in sec. -->
				<param name="typicalDuration" value="02:00:00" />
				<!-- method to compute score at typical duration.  Options: | uniform | relative | Use uniform for backwards compatibility (all activities same score; higher proba to drop long acts). -->
				<param name="typicalDurationScoreComputation" value="relative" />
			</parameterset>
			<parameterset type="activityParams" >
				<param name="activityType" value="car interaction" />
				<param name="closingTime" value="undefined" />
				<param name="earliestEndTime" value="undefined" />
				<param name="latestStartTime" value="undefined" />
				<param name="minimalDuration" value="undefined" />
				<param name="openingTime" value="undefined" />
				<param name="priority" value="1.0" />
				<param name="scoringThisActivityAtAll" value="false" />
				<param name="typicalDuration" value="undefined" />
				<param name="typicalDurationScoreComputation" value="relative" />
			</parameterset>
			<parameterset type="activityParams" >
				<param name="activityType" value="pt interaction" />
				<param name="closingTime" value="undefined" />
				<param name="earliestEndTime" value="undefined" />
				<param name="latestStartTime" value="undefined" />
				<param name="minimalDuration" value="undefined" />
				<param name="openingTime" value="undefined" />
				<param name="priority" value="1.0" />
				<param name="scoringThisActivityAtAll" value="false" />
				<param name="typicalDuration" value="undefined" />
				<param name="typicalDurationScoreComputation" value="relative" />
			</parameterset>
			<parameterset type="activityParams" >
				<param name="activityType" value="bike interaction" />
				<param name="closingTime" value="undefined" />
				<param name="earliestEndTime" value="undefined" />
				<param name="latestStartTime" value="undefined" />
				<param name="minimalDuration" value="undefined" />
				<param name="openingTime" value="undefined" />
				<param name="priority" value="1.0" />
				<param name="scoringThisActivityAtAll" value="false" />
				<param name="typicalDuration" value="undefined" />
				<param name="typicalDurationScoreComputation" value="relative" />
			</parameterset>
			<parameterset type="activityParams" >
				<param name="activityType" value="drt interaction" />
				<param name="closingTime" value="undefined" />
				<param name="earliestEndTime" value="undefined" />
				<param name="latestStartTime" value="undefined" />
				<param name="minimalDuration" value="undefined" />
				<param name="openingTime" value="undefined" />
				<param name="priority" value="1.0" />
				<param name="scoringThisActivityAtAll" value="false" />
				<param name="typicalDuration" value="undefined" />
				<param name="typicalDurationScoreComputation" value="relative" />
			</parameterset>
			<parameterset type="activityParams" >
				<param name="activityType" value="taxi interaction" />
				<param name="closingTime" value="undefined" />
				<param name="earliestEndTime" value="undefined" />
				<param name="latestStartTime" value="undefined" />
				<param name="minimalDuration" value="undefined" />
				<param name="openingTime" value="undefined" />
				<param name="priority" value="1.0" />
				<param name="scoringThisActivityAtAll" value="false" />
				<param name="typicalDuration" value="undefined" />
				<param name="typicalDurationScoreComputation" value="relative" />
			</parameterset>
			<parameterset type="activityParams" >
				<param name="activityType" value="other interaction" />
				<param name="closingTime" value="undefined" />
				<param name="earliestEndTime" value="undefined" />
				<param name="latestStartTime" value="undefined" />
				<param name="minimalDuration" value="undefined" />
				<param name="openingTime" value="undefined" />
				<param name="priority" value="1.0" />
				<param name="scoringThisActivityAtAll" value="false" />
				<param name="typicalDuration" value="undefined" />
				<param name="typicalDurationScoreComputation" value="relative" />
			</parameterset>
			<parameterset type="activityParams" >
				<param name="activityType" value="walk interaction" />
				<param name="closingTime" value="undefined" />
				<param name="earliestEndTime" value="undefined" />
				<param name="latestStartTime" value="undefined" />
				<param name="minimalDuration" value="undefined" />
				<param name="openingTime" value="undefined" />
				<param name="priority" value="1.0" />
				<param name="scoringThisActivityAtAll" value="false" />
				<param name="typicalDuration" value="undefined" />
				<param name="typicalDurationScoreComputation" value="relative" />
			</parameterset>
			<parameterset type="activityParams" >
				<param name="activityType" value="home" />
				<param name="closingTime" value="undefined" />
				<param name="earliestEndTime" value="undefined" />
				<param name="latestStartTime" value="undefined" />
				<param name="minimalDuration" value="undefined" />
				<param name="openingTime" value="undefined" />
				<param name="priority" value="1.0" />
				<param name="scoringThisActivityAtAll" value="true" />
				<param name="typicalDuration" value="12:00:00" />
				<param name="typicalDurationScoreComputation" value="relative" />
			</parameterset>
			<parameterset type="activityParams" >
				<param name="activityType" value="work" />
				<param name="closingTime" value="undefined" />
				<param name="earliestEndTime" value="undefined" />
				<param name="latestStartTime" value="undefined" />
				<param name="minimalDuration" value="undefined" />
				<param name="openingTime" value="undefined" />
				<param name="priority" value="1.0" />
				<param name="scoringThisActivityAtAll" value="true" />
				<param name="typicalDuration" value="08:00:00" />
				<param name="typicalDurationScoreComputation" value="relative" />
			</parameterset>
			<parameterset type="activityParams" >
				<param name="activityType" value="ride interaction" />
				<param name="closingTime" value="undefined" />
				<param name="earliestEndTime" value="undefined" />
				<param name="latestStartTime" value="undefined" />
				<param name="minimalDuration" value="undefined" />
				<param name="openingTime" value="undefined" />
				<param name="priority" value="1.0" />
				<param name="scoringThisActivityAtAll" value="false" />
				<param name="typicalDuration" value="undefined" />
				<param name="typicalDurationScoreComputation" value="relative" />
			</parameterset>
			<parameterset type="modeParams" >
				<!-- [utils] alternative-specific constant.  Normally per trip, but that is probably buggy for multi-leg trips. -->
				<param name="constant" value="0.0" />
				<!-- [unit_of_money/day] Fixed cost of mode, per day. -->
				<param name="dailyMonetaryConstant" value="0.0" />
				<!-- [utils] daily utility constant. default=0 to be backwards compatible -->
				<param name="dailyUtilityConstant" value="0.0" />
				<!-- [utils/m] utility of traveling (e.g. walking or driving) per m, normally negative.  this is on top of the time (dis)utility. -->
				<param name="marginalUtilityOfDistance_util_m" value="0.0" />
				<!-- [utils/hr] additional marginal utility of traveling.  normally negative.  this comes on top of the opportunity cost of time -->
				<param name="marginalUtilityOfTraveling_util_hr" value="-6.0" />
				<param name="mode" value="ride" />
				<!-- [unit_of_money/m] conversion of distance into money. Normally negative. -->
				<param name="monetaryDistanceRate" value="0.0" />
			</parameterset>
			<parameterset type="modeParams" >
				<param name="constant" value="0.0" />
				<param name="dailyMonetaryConstant" value="0.0" />
				<param name="dailyUtilityConstant" value="0.0" />
				<param name="marginalUtilityOfDistance_util_m" value="0.0" />
				<param name="marginalUtilityOfTraveling_util_hr" value="-6.0" />
				<param name="mode" value="car" />
				<param name="monetaryDistanceRate" value="0.0" />
			</parameterset>
			<parameterset type="modeParams" >
				<param name="constant" value="0.0" />
				<param name="dailyMonetaryConstant" value="0.0" />
				<param name="dailyUtilityConstant" value="0.0" />
				<param name="marginalUtilityOfDistance_util_m" value="0.0" />
				<param name="marginalUtilityOfTraveling_util_hr" value="-6.0" />
				<param name="mode" value="pt" />
				<param name="monetaryDistanceRate" value="0.0" />
			</parameterset>
			<parameterset type="modeParams" >
				<param name="constant" value="0.0" />
				<param name="dailyMonetaryConstant" value="0.0" />
				<param name="dailyUtilityConstant" value="0.0" />
				<param name="marginalUtilityOfDistance_util_m" value="0.0" />
				<param name="marginalUtilityOfTraveling_util_hr" value="-6.0" />
				<param name="mode" value="walk" />
				<param name="monetaryDistanceRate" value="0.0" />
			</parameterset>
			<parameterset type="modeParams" >
				<param name="constant" value="0.0" />
				<param name="dailyMonetaryConstant" value="0.0" />
				<param name="dailyUtilityConstant" value="0.0" />
				<param name="marginalUtilityOfDistance_util_m" value="0.0" />
				<param name="marginalUtilityOfTraveling_util_hr" value="-6.0" />
				<param name="mode" value="bike" />
				<param name="monetaryDistanceRate" value="0.0" />
			</parameterset>
			<parameterset type="modeParams" >
				<param name="constant" value="0.0" />
				<param name="dailyMonetaryConstant" value="0.0" />
				<param name="dailyUtilityConstant" value="0.0" />
				<param name="marginalUtilityOfDistance_util_m" value="0.0" />
				<param name="marginalUtilityOfTraveling_util_hr" value="-6.0" />
				<param name="mode" value="other" />
				<param name="monetaryDistanceRate" value="0.0" />
			</parameterset>
		</parameterset>
	</module>
	<module name="plans" >
		<!-- String: minOfDurationAndEndTime tryEndTimeThenDuration endTimeOnly. Anything besides minOfDurationAndEndTime will internally use a different (simpler) version of the TimeAllocationMutator. -->
		<param name="activityDurationInterpretation" value="tryEndTimeThenDuration" />
		<!-- Possible values: reject,useMainModeIdentifier -->
		<param name="handlingOfPlansWithoutRoutingMode" value="reject" />
		<!-- The Coordinates Reference System in which the coordinates are expressed in the input file. At import, the coordinates will be converted to the coordinate system defined in "global", and willbe converted back at export. If not specified, no conversion happens. -->
		<param name="inputCRS" value="null" />
		<param name="inputPersonAttributesFile" value="null" />
		<param name="inputPlansFile" value="population_test.xml" />
		<param name="insistingOnUsingDeprecatedPersonAttributeFile" value="false" />
		<!-- Defines how routes are stored in memory. Currently supported: LinkNetworkRoute, MediumCompressedNetworkRoute, HeavyCompressedNetworkRoute. -->
		<param name="networkRouteType" value="LinkNetworkRoute" />
		<!-- (not tested) will remove plan attributes that are presumably not used, such as activityStartTime. default=false. Use with Caution! -->
		<param name="removingUnnecessaryPlanAttributes" value="false" />
		<!-- Defines how departure times are interpreted in rerouting applications. If set to 'ignoreDelays', the departure time of a trip when routing along a plan will always be the nominal (plan-based) activity end time. If set to 'shiftActivityEndTimes', routing along a plan will accumulate travel times and shift activity end times if necessary -->
		<param name="tripDurationHandling" value="ignoreDelays" />
	</module>
	<module name="planscalcroute" >
		<!-- Defines how access and egress to main mode is simulated. Either of [none, accessEgressModeToLink, walkConstantTimeToLink, accessEgressModeToLinkPlusTimeConstant], Current default=none which means no access or egress trips are simulated. -->
		<param name="accessEgressType" value="none" />
		<!-- Some typical teleportation routing params are set by default, such as for walk and bike.  Setting this switch to "true" will clear them.  Note that this will also clear settings for helper modes such as for non_network_walk -->
		<param name="clearDefaultTeleportedModeParams" value="true" />
		<!-- All the modes for which the router is supposed to generate network routes (like car) -->
		<param name="networkModes" value="car" />
		<!-- strength of the randomness for the utility of money in routing under toll.  Leads to Pareto-optimal route with randomly drawn money-vs-other-attributes tradeoff. Technically the width parameter of a log-normal distribution. 3.0 seems to be a good value.  -->
		<param name="routingRandomness" value="3.0" />
		<parameterset type="teleportedModeParameters" >
			<param name="beelineDistanceFactor" value="1.3" />
			<param name="mode" value="bike" />
			<!-- Free-speed factor for a teleported mode. Travel time = teleportedModeFreespeedFactor * <freespeed car travel time>. Insert a line like this for every such mode. Please do not set teleportedModeFreespeedFactor as well as teleportedModeSpeed for the same mode, but if you do, +teleportedModeFreespeedFactor wins over teleportedModeSpeed. -->
			<param name="teleportedModeFreespeedFactor" value="null" />
			<!-- Speed for a teleported mode. Travel time = (<beeline distance> * beelineDistanceFactor) / teleportedModeSpeed. Insert a line like this for every such mode. -->
			<param name="teleportedModeSpeed" value="4.166666666666667" />
		</parameterset>
		<parameterset type="teleportedModeParameters" >
			<param name="beelineDistanceFactor" value="1.3" />
			<param name="mode" value="walk" />
			<param name="teleportedModeFreespeedFactor" value="null" />
			<param name="teleportedModeSpeed" value="0.8333333333333333" />
		</parameterset>
		<parameterset type="teleportedModeParameters" >
			<param name="beelineDistanceFactor" value="1.3" />
			<param name="mode" value="undefined" />
			<param name="teleportedModeFreespeedFactor" value="null" />
			<param name="teleportedModeSpeed" value="13.88888888888889" />
		</parameterset>
		<parameterset type="teleportedModeParameters" >
			<param name="beelineDistanceFactor" value="1.3" />
			<param name="mode" value="pt" />
			<param name="teleportedModeFreespeedFactor" value="2.0" />
			<param name="teleportedModeSpeed" value="null" />
		</parameterset>
	</module>
	<module name="ptCounts" >
		<!-- factor by which to re-scale the simulated values.  necessary when simulation runs with something different from 100%.  needs to be adapted manually -->
		<param name="countsScaleFactor" value="1.0" />
		<!-- distance to distanceFilterCenterNode to include counting stations. The unit of distance is the Euclidean distance implied by the coordinate system -->
		<param name="distanceFilter" value="null" />
		<!-- node id for center node of distance filter -->
		<param name="distanceFilterCenterNode" value="null" />
		<!-- input file containing the alighting (getting off) counts for pt -->
		<param name="inputAlightCountsFile" value="null" />
		<!-- input file containing the boarding (getting on) counts for pt -->
		<param name="inputBoardCountsFile" value="null" />
		<!-- input file containing the occupancy counts for pt -->
		<param name="inputOccupancyCountsFile" value="null" />
		<!-- possible values: `html', `txt', `all' -->
		<param name="outputformat" value="null" />
		<!-- every how many iterations (starting with 0) counts comparisons are generated -->
		<param name="ptCountsInterval" value="10" />
	</module>
	<module name="qsim" >
		<param name="endTime" value="undefined" />
		<!-- If set to withLinkAttributes snapshots will only be generated for links which include generateSnapshotForLink as attribute key. Default is no filtering. -->
		<param name="filterSnapshots" value="no" />
		<param name="flowCapacityFactor" value="1.0" />
		<!-- decides if waiting vehicles enter the network after or before the already driving vehicles were moved. Default: false -->
		<param name="insertingWaitingVehiclesBeforeDrivingVehicles" value="true" />
		<!-- If link dynamics is set as SeepageQ, set to false if all seep modes should perform seepage. Default is true (better option). -->
		<param name="isRestrictingSeepage" value="true" />
		<!-- If link dynamics is set as SeepageQ, set to true if seep mode do not consumes any space on the link. Default is false. -->
		<param name="isSeepModeStorageFree" value="false" />
		<!-- default: FIFO; options: FIFO PassingQ SeepageQ -->
		<param name="linkDynamics" value="FIFO" />
		<!-- The (initial) width of the links of the network. Use positive floating point values. This is used only for visualisation. -->
		<param name="linkWidth" value="30.0" />
		<!-- [comma-separated list] Defines which modes are congested modes. Technically, these are the modes that the departure handler of the netsimengine handles.  Effective cell size, effective lane width, flow capacity factor, and storage capacity factor need to be set with diligence.  Need to be vehicular modes to make sense. -->
		<param name="mainMode" value="car" />
		<!-- Shortens a link in the visualization, i.e. its start and end point are moved into towards the center. Does not affect traffic flow.  -->
		<param name="nodeOffset" value="0.0" />
		<!-- Number of threads used for the QSim.  Note that this setting is independent from the "global" threads setting.  In contrast to earlier versions, the non-parallel special version is no longer there. -->
		<param name="numberOfThreads" value="1" />
		<!-- Boolean. `true': stuck vehicles are removed, aborting the plan; `false': stuck vehicles are forced into the next link. `false' is probably the better choice. -->
		<param name="removeStuckVehicles" value="false" />
		<!-- If link dynamics is set as SeepageQ, set a seep mode. Default is bike. -->
		<param name="seepMode" value="bike" />
		<!-- Possible values: minOfEndtimeAndMobsimFinished,onlyUseEndtime -->
		<param name="simEndtimeInterpretation" value="null" />
		<!-- Options: maxOfStarttimeAndEarliestActivityEnd onlyUseStarttime  -->
		<param name="simStarttimeInterpretation" value="maxOfStarttimeAndEarliestActivityEnd" />
		<!-- snapshotStyle. One of: equiDist queue withHoles withHolesAndShowHoles kinematicWaves  -->
		<param name="snapshotStyle" value="queue" />
		<param name="snapshotperiod" value="00:00:00" />
		<param name="startTime" value="undefined" />
		<param name="storageCapacityFactor" value="1.0" />
		<!-- time in seconds.  Time after which the frontmost vehicle on a link is called `stuck' if it does not move. -->
		<param name="stuckTime" value="10.0" />
		<param name="timeStepSize" value="00:00:01" />
		<!-- options: queue withHoles kinematicWaves  -->
		<param name="trafficDynamics" value="queue" />
		<!-- Set this parameter to true if lanes should be used, false if not. -->
		<param name="useLanes" value="false" />
		<!-- If a route does not reference a vehicle, agents will use the vehicle with the same id as their own. -->
		<param name="usePersonIdForMissingVehicleId" value="true" />
		<!-- If false, the qsim accumulates fractional flows up to one flow unit in every time step.  If true, flows are updated only if an agent wants to enter the link or an agent is added to buffer. Default is true. -->
		<param name="usingFastCapacityUpdate" value="true" />
		<!-- Defines what happens if an agent wants to depart, but the specified vehicle is not available. One of: teleport wait exception  -->
		<param name="vehicleBehavior" value="teleport" />
		<!-- If vehicles should all be the same default vehicle, or come from the vehicles file, or something else.  Possible values:  defaultVehicle modeVehicleTypesFromVehiclesData fromVehiclesData -->
		<param name="vehiclesSource" value="defaultVehicle" />
	</module>
	<module name="strategy" >
		<!-- the external executable will be called with a config file as argument.  This is the pathname to a possible skeleton config, to which additional information will be added.  Can be null. -->
		<param name="ExternalExeConfigTemplate" value="null" />
		<!-- time out value (in seconds) after which matsim will consider the external strategy as failed -->
		<param name="ExternalExeTimeOut" value="3600" />
		<!-- root directory for temporary files generated by the external executable. Provided as a service; I don't think this is used by MATSim. -->
		<param name="ExternalExeTmpFileRootDir" value="null" />
		<!-- fraction of iterations where innovative strategies are switched off.  Something like 0.8 should be good.  E.g. if you run from iteration 400 to iteration 500, innovation is switched off at iteration 480 -->
		<param name="fractionOfIterationsToDisableInnovation" value="Infinity" />
		<!-- maximum number of plans per agent.  ``0'' means ``infinity''.  Currently (2010), ``5'' is a good number -->
		<param name="maxAgentPlanMemorySize" value="5" />
		<!-- strategyName of PlanSelector for plans removal.  Possible defaults: WorstPlanSelector SelectRandom SelectExpBetaForRemoval ChangeExpBetaForRemoval PathSizeLogitSelectorForRemoval . The current default, WorstPlanSelector is not a good choice from a discrete choice theoretical perspective. Alternatives, however, have not been systematically tested. kai, feb'12 -->
		<param name="planSelectorForRemoval" value="WorstPlanSelector" />
		<parameterset type="strategysettings" >
			<!-- iteration after which strategy will be disabled.  most useful for ``innovative'' strategies (new routes, new times, ...). Normally, better use fractionOfIterationsToDisableInnovation -->
			<param name="disableAfterIteration" value="-1" />
			<!-- path to external executable (if applicable) -->
			<param name="executionPath" value="null" />
			<!-- strategyName of strategy.  Possible default names: SelectRandom BestScore KeepLastSelected ChangeExpBeta SelectExpBeta SelectPathSizeLogit      (selectors), ReRouteTimeAllocationMutatorTimeAllocationMutator_ReRouteChangeSingleTripModeChangeTripModeSubtourModeChoice (innovative strategies). -->
			<param name="strategyName" value="ChangeExpBeta" />
			<!-- subpopulation to which the strategy applies. "null" refers to the default population, that is, the set of persons for which no explicit subpopulation is defined (ie no subpopulation attribute) -->
			<param name="subpopulation" value="null" />
			<!-- weight of a strategy: for each agent, a strategy will be selected with a probability proportional to its weight -->
			<param name="weight" value="1.0" />
		</parameterset>
	</module>
	<module name="subtourModeChoice" >
		<!-- Only for backwards compatibility.  Defines if only trips from modes list should change mode, or all trips.  Options: fromAllModesToSpecifiedModes fromSpecifiedModesToSpecifiedModes betweenAllAndFewerConstraints  -->
		<param name="behavior" value="fromSpecifiedModesToSpecifiedModes" />
		<!-- Defines the chain-based modes, seperated by commas -->
		<param name="chainBasedModes" value="car,bike" />
		<!-- Defines whether car availability must be considered or not. A agent has no car only if it has no license, or never access to a car -->
		<param name="considerCarAvailability" value="false" />
		<!-- If greater than 0, subtours will also consider coordinates to be at the same location when smaller than set distance. -->
		<param name="coordDistance" value="0.0" />
		<!-- Defines all the modes available, including chain-based modes, seperated by commas -->
		<param name="modes" value="car,pt,bike,walk" />
		<!-- Defines the probability of changing a single trip for a unchained mode instead of subtour. -->
		<param name="probaForRandomSingleTripMode" value="0.0" />
	</module>
	<module name="transit" >
		<!-- The Coordinates Reference System in which the coordinates are expressed in the input file. At import, the coordinates will be converted to the coordinate system defined in "global", and willbe converted back at export. If not specified, no conversion happens. -->
		<param name="inputScheduleCRS" value="null" />
		<param name="insistingOnUsingDeprecatedAttributeFiles" value="false" />
		<!-- The type of transit routing algorithm used, may have the values: [DijkstraBased, SwissRailRaptor] -->
		<param name="routingAlgorithmType" value="SwissRailRaptor" />
		<!-- Optional input file containing additional attributes for transit lines, stored as ObjectAttributes. -->
		<param name="transitLinesAttributesFile" value="null" />
		<!-- Comma-separated list of transportation modes that are handled as transit. Defaults to 'pt'. -->
		<param name="transitModes" value="pt" />
		<!-- Input file containing the transit schedule to be simulated. -->
		<param name="transitScheduleFile" value="null" />
		<!-- Optional input file containing additional attributes for transit stop facilities, stored as ObjectAttributes. -->
		<param name="transitStopsAttributesFile" value="null" />
		<!-- Set this parameter to true if transit should be simulated, false if not. -->
		<param name="useTransit" value="false" />
		<param name="usingTransitInMobsim" value="true" />
		<!-- Input file containing the vehicles used by the departures in the transit schedule. -->
		<param name="vehiclesFile" value="null" />
	</module>
	<module name="transitRouter" >
		<!-- additional time the router allocates when a line switch happens. Can be interpreted as a 'safety' time that agents need to safely transfer from one line to another -->
		<param name="additionalTransferTime" value="0.0" />
		<!-- Factor with which direct walk generalized cost is multiplied before it is compared to the pt generalized cost.  Set to a very high value to reduce direct walk results. -->
		<param name="directWalkFactor" value="1.0" />
		<!-- step size to increase searchRadius if no stops are found -->
		<param name="extensionRadius" value="200.0" />
		<!-- maximum beeline distance between stops that agents could transfer to by walking -->
		<param name="maxBeelineWalkConnectionDistance" value="100.0" />
		<!-- the radius in which stop locations are searched, given a start or target coordinate -->
		<param name="searchRadius" value="1000.0" />
	</module>
	<module name="travelTimeCalculator" >
		<!-- (only for backwards compatibility; only used if separateModes==false && + filterModes==true)  Transport modes that will be respected by the travel time collector. 'car' is default which includes also buses from the pt simulation module. -->
		<param name="analyzedModes" value="car" />
		<param name="calculateLinkToLinkTravelTimes" value="false" />
		<param name="calculateLinkTravelTimes" value="true" />
		<!-- (only for backwards compatiblity; only used if separateModes==false)  Only modes included in analyzedModes are included. -->
		<param name="filterModes" value="false" />
		<!-- The lenght (in sec) of the time period that is splited into time bins; an additional time bin is created to aggregate all travel times collected after maxTime -->
		<param name="maxTime" value="108000" />
		<!-- (only for backwards compatibility) If false, link travel times are measured and aggregated over all vehicles using the link. -->
		<param name="separateModes" value="true" />
		<!-- How to deal with congested time bins that have no link entry events. `optimistic' assumes free speed (too optimistic); 'experimental_LastMile' is experimental and probably too pessimistic. -->
		<param name="travelTimeAggregator" value="optimistic" />
		<!-- The size of the time bin (in sec) into which the link travel times are aggregated for the router -->
		<param name="travelTimeBinSize" value="900" />
		<!-- possible values: TravelTimeCalculatorArray TravelTimeCalculatorHashMap  -->
		<param name="travelTimeCalculator" value="TravelTimeCalculatorArray" />
		<!-- How to deal with link entry times at different positions during the time bin. Currently supported: average, linearinterpolation -->
		<param name="travelTimeGetter" value="average" />
	</module>
	<module name="vehicles" >
		<param name="vehiclesFile" value="sample_emissionVehicles_v2.xml" />
	</module>
	<module name="vspExperimental" >
		<!-- (do not use except of you have to) There was a problem with pt interaction scoring.  Some people solved it by overwriting the parameters of the pt interaction activity type.  Doing this now throws an Exception.  If you still insist on doing this, set the following to true. -->
		<param name="isAbleToOverwritePtInteractionParams" value="false" />
		<param name="isGeneratingBoardingDeniedEvent" value="false" />
		<!-- if an approximation of the opportunity cost of time is included into the radius calculation for location choice.`true' will be faster, but it is an approximation.  Default is `true'; `false' is available for backwards compatibility. -->
		<param name="isUsingOpportunityCostOfTimeForLocationChoice" value="true" />
		<param name="logitScaleParamForPlansRemoval" value="1.0" />
		<!-- Options: | ignore | info | warn | abort | .  When violating VSP defaults, this results in nothing, logfile infos, logfile warnings, or aborts.  Members of VSP should use `abort' or talk to kai. -->
		<param name="vspDefaultsCheckingLevel" value="warn" />
		<!-- if true then writes output_events in output directory.  default is `false'. Will only work when lastIteration is multiple of events writing interval -->
		<param name="writingOutputEvents" value="true" />
	</module>

</config>

2024-05-13T07:47:10,014  INFO ControlerUtils:85 Complete config dump done.
2024-05-13T07:47:10,014  INFO ControlerUtils:86 Checking consistency of config...
2024-05-13T07:47:10,014  INFO PlanCalcScoreConfigGroup$ScoringParameterSet:1555 NO OPENING OR CLOSING TIMES DEFINED!

There is no activity type that has an opening *and* closing time (or opening time and late penalty) defined.
This usually means that the activity chains can be shifted by an arbitrary
number of hours without having an effect on the score of the plans, and thus
resulting in wrong results / traffic patterns.
If you are using MATSim without time adaptation, you can ignore this warning.


2024-05-13T07:47:10,014  INFO VspConfigConsistencyCheckerImpl:78 running checkConsistency ...
2024-05-13T07:47:10,014  WARN VspConfigConsistencyCheckerImpl:89 you are insisting on config v1.  vsp default is using v2.
2024-05-13T07:47:10,014  WARN VspConfigConsistencyCheckerImpl:404 you are not using SpeedyALT as routing algorithm.  vsp default (since may'21) is to use SpeedeALT.
2024-05-13T07:47:10,015  WARN VspConfigConsistencyCheckerImpl:190 You are not setting fractionOfIterationsToStartScoreMSA; vsp default is to set this to something like 0.8.  This means you have to add the following lines to your config file: 
2024-05-13T07:47:10,015  WARN VspConfigConsistencyCheckerImpl:192 <module name="planCalcScore">
2024-05-13T07:47:10,015  WARN VspConfigConsistencyCheckerImpl:193 	<param name="fractionOfIterationsToStartScoreMSA" value="0.8" />
2024-05-13T07:47:10,015  WARN VspConfigConsistencyCheckerImpl:194 </module>
2024-05-13T07:47:10,015  WARN VspConfigConsistencyCheckerImpl:212 You are not removing unnecessary plan attributes; vsp default is to do that.
2024-05-13T07:47:10,015  WARN VspConfigConsistencyCheckerImpl:245 found `PlansCalcRouteConfigGroup.AccessEgressType.none'; vsp should use `accessEgressModeToLink' or some other value or talk to Kai.
2024-05-13T07:47:10,015  WARN VspConfigConsistencyCheckerImpl:252 found qsim.usePersonIdForMissingVehicleId==true; this is only for backwards compatibility and should rather be set to false
2024-05-13T07:47:10,015  WARN VspConfigConsistencyCheckerImpl:257 found `qsim.usingTravelTimeCheckInTeleporation==false'; vsp should try out `true' and report.
2024-05-13T07:47:10,016  WARN VspConfigConsistencyCheckerImpl:270  found 'qsim.trafficDynamics==queue'; vsp standard is`kinematicWaves'.
2024-05-13T07:47:10,016  WARN VspConfigConsistencyCheckerImpl:300 You have not set fractionOfIterationsToDisableInnovation; vsp default is to set this to 0.8 or similar.  Add the following config lines:
2024-05-13T07:47:10,016  WARN VspConfigConsistencyCheckerImpl:301 <module name="strategy">
2024-05-13T07:47:10,016  WARN VspConfigConsistencyCheckerImpl:302 	<param name="fractionOfIterationsToDisableInnovation" value="0.8" />
2024-05-13T07:47:10,016  WARN VspConfigConsistencyCheckerImpl:303 </module>
2024-05-13T07:47:10,018  INFO ControlerUtils:88 Checking consistency of config done.
2024-05-13T07:47:10,105  WARN PrepareForSimImpl:229 'usePersonIdForMissingVehicleId' is deprecated. It will be removed soon.
2024-05-13T07:47:10,106  INFO Counter:70 [VehiclesImpl] added vehicle # 16
2024-05-13T07:47:10,106  INFO Counter:70 [VehiclesImpl] added vehicle # 32
2024-05-13T07:47:10,110  INFO Counter:70 [VehiclesImpl] added vehicle # 64
2024-05-13T07:47:10,113  INFO Counter:70 [VehiclesImpl] added vehicle # 128
2024-05-13T07:47:10,116  INFO Counter:70 [VehiclesImpl] added vehicle # 256
2024-05-13T07:47:10,121  INFO Counter:70 [VehiclesImpl] added vehicle # 512
2024-05-13T07:47:10,129  INFO Counter:70 [VehiclesImpl] added vehicle # 1024
2024-05-13T07:47:10,135  INFO Counter:70 [VehiclesImpl] added vehicle # 2048
2024-05-13T07:47:10,146  INFO Counter:70 [VehiclesImpl] added vehicle # 4096
2024-05-13T07:47:10,161  INFO Counter:70 [VehiclesImpl] added vehicle # 8192
2024-05-13T07:47:10,184  INFO Counter:70 [VehiclesImpl] added vehicle # 16384
2024-05-13T07:47:10,721  INFO PreProcessDijkstra:119 nodes in dead ends: 38929 (total nodes: 106802). Done in 339 ms
2024-05-13T07:47:10,799  INFO PreProcessLandmarks:113 Putting landmarks on network...
2024-05-13T07:47:10,818  INFO LandmarkerPieSlices:97 Filling sectors...
2024-05-13T07:47:11,026  INFO LandmarkerPieSlices:108 Refining landmarks...
2024-05-13T07:47:11,039  INFO LandmarkerPieSlices:110 done
2024-05-13T07:47:11,039  INFO PreProcessLandmarks:116 done in 240 ms
2024-05-13T07:47:11,039  INFO PreProcessLandmarks:118 Initializing landmarks data
2024-05-13T07:47:11,074  INFO PreProcessLandmarks:130 Calculating distance from each node to each of the 16 landmarks using 2 threads...
2024-05-13T07:47:11,078  INFO PreProcessLandmarks:140 wait for landmarks Calculator to finish...
2024-05-13T07:47:14,739  INFO PreProcessLandmarks:164 done in 3664 ms
2024-05-13T07:47:14,750  INFO NetworkImpl:165  node # 1
2024-05-13T07:47:14,751  INFO NetworkImpl:165  node # 4
2024-05-13T07:47:14,751  INFO NetworkImpl:165  node # 16
2024-05-13T07:47:14,751  INFO NetworkImpl:165  node # 64
2024-05-13T07:47:14,751  INFO NetworkImpl:165  node # 256
2024-05-13T07:47:14,751  INFO NetworkImpl:165  node # 1024
2024-05-13T07:47:14,753  INFO NetworkImpl:165  node # 4096
2024-05-13T07:47:14,755  INFO NetworkImpl:165  node # 16384
2024-05-13T07:47:14,766  INFO NetworkImpl:165  node # 65536
2024-05-13T07:47:14,774  INFO NetworkImpl:161  link # 1
2024-05-13T07:47:14,775  INFO NetworkImpl:161  link # 4
2024-05-13T07:47:14,775  INFO NetworkImpl:161  link # 16
2024-05-13T07:47:14,775  INFO NetworkImpl:161  link # 64
2024-05-13T07:47:14,776  INFO NetworkImpl:161  link # 256
2024-05-13T07:47:14,777  INFO NetworkImpl:161  link # 1024
2024-05-13T07:47:14,780  INFO NetworkImpl:161  link # 4096
2024-05-13T07:47:14,800  INFO NetworkImpl:161  link # 16384
2024-05-13T07:47:14,883  INFO NetworkImpl:161  link # 65536
2024-05-13T07:47:15,142  WARN RandomizingTimeDistanceTravelDisutilityFactory:113 There will be no routing randomness. The randomization of the travel disutility requires the monetary distance rate to be different than zero. Continuing anyway.
2024-05-13T07:47:15,142  WARN RandomizingTimeDistanceTravelDisutilityFactory:118 There will be no routing randomness. The randomization of the travel disutility requires the travel time cost rate to be different than zero. Continuing anyway.
2024-05-13T07:47:15,145  INFO RandomizingTimeDistanceTravelDisutilityFactory:86  sigma: 3.0; resulting normalization: 0.011108996538242306
2024-05-13T07:47:15,404  INFO PreProcessDijkstra:119 nodes in dead ends: 38929 (total nodes: 106802). Done in 258 ms
2024-05-13T07:47:15,461  INFO PreProcessLandmarks:113 Putting landmarks on network...
2024-05-13T07:47:15,468  INFO LandmarkerPieSlices:97 Filling sectors...
2024-05-13T07:47:15,692  INFO LandmarkerPieSlices:108 Refining landmarks...
2024-05-13T07:47:15,710  INFO LandmarkerPieSlices:110 done
2024-05-13T07:47:15,711  INFO PreProcessLandmarks:116 done in 249 ms
2024-05-13T07:47:15,711  INFO PreProcessLandmarks:118 Initializing landmarks data
2024-05-13T07:47:15,977  INFO PreProcessLandmarks:130 Calculating distance from each node to each of the 16 landmarks using 2 threads...
2024-05-13T07:47:15,979  INFO PreProcessLandmarks:140 wait for landmarks Calculator to finish...
2024-05-13T07:47:18,872  INFO PreProcessLandmarks:164 done in 2894 ms
2024-05-13T07:47:19,005  INFO RandomizingTimeDistanceTravelDisutilityFactory:86  sigma: 3.0; resulting normalization: 0.011108996538242306
2024-05-13T07:47:19,081  INFO NetworkImpl:419 building QuadTree for nodes: xrange(8494396.458028924,8527402.478718683); yrange(1107400.5437755862,1134680.7490567388)
2024-05-13T07:47:19,217  INFO NetworkImpl:428 Building QuadTree took 0.171 seconds.
2024-05-13T07:47:19,230  INFO Counter:70 [PersonPrepareForSim] handled person # 1
2024-05-13T07:47:19,231  INFO Counter:70 [PersonPrepareForSim] handled person # 4
2024-05-13T07:47:19,230  INFO Counter:70 [PersonPrepareForSim] handled person # 2
2024-05-13T07:47:19,231  INFO Counter:70 [PersonPrepareForSim] handled person # 8
2024-05-13T07:47:19,232  INFO Counter:70 [PersonPrepareForSim] handled person # 16
2024-05-13T07:47:19,233  INFO Counter:70 [PersonPrepareForSim] handled person # 32
2024-05-13T07:47:19,235  INFO Counter:70 [PersonPrepareForSim] handled person # 64
2024-05-13T07:47:19,238  INFO Counter:70 [PersonPrepareForSim] handled person # 128
2024-05-13T07:47:19,243  INFO Counter:70 [PersonPrepareForSim] handled person # 256
2024-05-13T07:47:19,251  INFO Counter:70 [PersonPrepareForSim] handled person # 512
2024-05-13T07:47:19,260  INFO Counter:70 [PersonPrepareForSim] handled person # 1024
2024-05-13T07:47:19,278  INFO Counter:70 [PersonPrepareForSim] handled person # 2048
2024-05-13T07:47:19,302  INFO Counter:70 [PersonPrepareForSim] handled person # 4096
2024-05-13T07:47:19,345  INFO Counter:70 [PersonPrepareForSim] handled person # 8192
2024-05-13T07:47:19,424  INFO Counter:70 [PersonPrepareForSim] handled person # 16384
2024-05-13T07:47:19,494  INFO Counter:75 [PersonPrepareForSim] handled person # 24860
2024-05-13T07:47:19,562  INFO AbstractController:134 ###################################################
2024-05-13T07:47:19,563  INFO AbstractController:135 ### ITERATION 0 BEGINS
2024-05-13T07:47:19,566  INFO ControlerListenerManagerImpl:146 calling notifyIterationStarts on org.matsim.analysis.LegHistogramListener
2024-05-13T07:47:19,566  INFO ControlerListenerManagerImpl:146 calling notifyIterationStarts on org.matsim.analysis.LinkStatsControlerListener
2024-05-13T07:47:19,567  INFO ControlerListenerManagerImpl:146 calling notifyIterationStarts on org.matsim.core.replanning.ReplanningContextImpl
2024-05-13T07:47:19,567  INFO ControlerListenerManagerImpl:146 calling notifyIterationStarts on org.matsim.core.scoring.ScoringFunctionsForPopulation$$Lambda$238/0x0000000801335e38
2024-05-13T07:47:19,639  INFO ControlerListenerManagerImpl:146 calling notifyIterationStarts on org.matsim.core.scoring.ExperiencedPlansServiceImpl$1
2024-05-13T07:47:19,645  INFO ControlerListenerManagerImpl:149 [it.0] all ControlerIterationStartsListeners called.
2024-05-13T07:47:19,647  INFO ControlerListenerManagerImpl:225 calling notifyBeforeMobsim on org.matsim.core.controler.corelisteners.EventsHandlingImpl
2024-05-13T07:47:19,647  INFO EventsManagerImpl:168 resetting Event-Handlers
2024-05-13T07:47:19,647  INFO EventsManagerImpl:175   org.matsim.core.trafficmonitoring.TravelTimeCalculator
2024-05-13T07:47:19,649  INFO EventsManagerImpl:175   org.matsim.analysis.VolumesAnalyzer
2024-05-13T07:47:19,649  INFO EventsManagerImpl:175   org.matsim.core.scoring.ScoringFunctionsForPopulation
2024-05-13T07:47:19,649  INFO EventsManagerImpl:175   org.matsim.analysis.LegHistogram
2024-05-13T07:47:19,650  INFO EventsManagerImpl:175   org.matsim.analysis.CalcLegTimes
2024-05-13T07:47:19,659  INFO EventsManagerImpl:138 adding Event-Handler: org.matsim.core.events.algorithms.EventWriterXML
2024-05-13T07:47:19,659  INFO EventsManagerImpl:144   org.matsim.core.events.algorithms.EventWriter
2024-05-13T07:47:19,659  INFO EventsManagerImpl:144   org.matsim.core.events.handler.BasicEventHandler
2024-05-13T07:47:19,660  INFO EventsManagerImpl:205     > org.matsim.api.core.v01.events.Event
2024-05-13T07:47:19,660  INFO EventsManagerImpl:154 
2024-05-13T07:47:19,660  INFO EventsManagerImpl:138 adding Event-Handler: org.matsim.core.events.algorithms.EventWriterXML
2024-05-13T07:47:19,660  INFO EventsManagerImpl:144   org.matsim.core.events.algorithms.EventWriter
2024-05-13T07:47:19,660  INFO EventsManagerImpl:144   org.matsim.core.events.handler.BasicEventHandler
2024-05-13T07:47:19,660  INFO EventsManagerImpl:205     > org.matsim.api.core.v01.events.Event
2024-05-13T07:47:19,660  INFO EventsManagerImpl:154 
2024-05-13T07:47:19,660  INFO ControlerListenerManagerImpl:225 calling notifyBeforeMobsim on org.matsim.core.controler.corelisteners.PlansDumpingImpl
2024-05-13T07:47:19,660  INFO PlansDumpingImpl:77 dumping plans...
2024-05-13T07:47:19,726  INFO Counter:70 [PopulationWriter] dumped person # 1
2024-05-13T07:47:19,728  INFO Counter:70 [PopulationWriter] dumped person # 2
2024-05-13T07:47:19,729  INFO Counter:70 [PopulationWriter] dumped person # 4
2024-05-13T07:47:19,730  INFO Counter:70 [PopulationWriter] dumped person # 8
2024-05-13T07:47:19,732  INFO Counter:70 [PopulationWriter] dumped person # 16
2024-05-13T07:47:19,737  INFO Counter:70 [PopulationWriter] dumped person # 32
2024-05-13T07:47:19,745  INFO Counter:70 [PopulationWriter] dumped person # 64
2024-05-13T07:47:19,765  INFO Counter:70 [PopulationWriter] dumped person # 128
2024-05-13T07:47:19,785  INFO Counter:70 [PopulationWriter] dumped person # 256
2024-05-13T07:47:19,815  INFO Counter:70 [PopulationWriter] dumped person # 512
2024-05-13T07:47:19,850  INFO Counter:70 [PopulationWriter] dumped person # 1024
2024-05-13T07:47:19,897  INFO Counter:70 [PopulationWriter] dumped person # 2048
2024-05-13T07:47:20,014  INFO Counter:70 [PopulationWriter] dumped person # 4096
2024-05-13T07:47:20,204  INFO Counter:70 [PopulationWriter] dumped person # 8192
2024-05-13T07:47:20,585  INFO Counter:70 [PopulationWriter] dumped person # 16384
2024-05-13T07:47:20,832  INFO PopulationWriter:145 Population written to: ./output/ITERS/it.0/0.plans.xml.gz
2024-05-13T07:47:20,833  INFO Counter:75 [PopulationWriter] dumped person # 24860
2024-05-13T07:47:20,834  INFO PlansDumpingImpl:94 finished plans dump.
2024-05-13T07:47:20,834  INFO ControlerListenerManagerImpl:230 calling notifyBeforeMobsim on org.matsim.core.population.VspPlansCleaner
2024-05-13T07:47:20,857  INFO ControlerListenerManagerImpl:233 [it.0] all ControlerBeforeMobsimListeners called.
2024-05-13T07:47:20,885  INFO RandomizingTimeDistanceTravelDisutilityFactory:86  sigma: 3.0; resulting normalization: 0.011108996538242306
2024-05-13T07:47:20,896  INFO RandomizingTimeDistanceTravelDisutilityFactory:86  sigma: 3.0; resulting normalization: 0.011108996538242306
2024-05-13T07:47:20,911  INFO Counter:70 [PersonPrepareForSim] handled person # 1
2024-05-13T07:47:20,911  INFO Counter:70 [PersonPrepareForSim] handled person # 2
2024-05-13T07:47:20,911  INFO Counter:70 [PersonPrepareForSim] handled person # 4
2024-05-13T07:47:20,911  INFO Counter:70 [PersonPrepareForSim] handled person # 8
2024-05-13T07:47:20,911  INFO Counter:70 [PersonPrepareForSim] handled person # 16
2024-05-13T07:47:20,911  INFO Counter:70 [PersonPrepareForSim] handled person # 32
2024-05-13T07:47:20,911  INFO Counter:70 [PersonPrepareForSim] handled person # 64
2024-05-13T07:47:20,911  INFO Counter:70 [PersonPrepareForSim] handled person # 128
2024-05-13T07:47:20,912  INFO Counter:70 [PersonPrepareForSim] handled person # 256
2024-05-13T07:47:20,912  INFO Counter:70 [PersonPrepareForSim] handled person # 512
2024-05-13T07:47:20,913  INFO Counter:70 [PersonPrepareForSim] handled person # 1024
2024-05-13T07:47:20,915  INFO Counter:70 [PersonPrepareForSim] handled person # 2048
2024-05-13T07:47:20,917  INFO Counter:70 [PersonPrepareForSim] handled person # 4096
2024-05-13T07:47:20,923  INFO Counter:70 [PersonPrepareForSim] handled person # 8192
2024-05-13T07:47:20,933  INFO Counter:70 [PersonPrepareForSim] handled person # 16384
2024-05-13T07:47:20,942  INFO Counter:75 [PersonPrepareForSim] handled person # 24860
2024-05-13T07:47:21,062  INFO MobsimListenerManager:50 calling addQueueSimulationListener
2024-05-13T07:47:21,063  INFO MobsimListenerManager:54   assigned class org.matsim.core.mobsim.framework.listeners.MobsimListener to interface org.matsim.core.mobsim.framework.listeners.MobsimBeforeCleanupListener
2024-05-13T07:47:21,063  INFO MobsimListenerManager:54   assigned class org.matsim.core.mobsim.framework.listeners.MobsimListener to interface org.matsim.core.mobsim.framework.listeners.MobsimInitializedListener
2024-05-13T07:47:21,063  INFO MobsimListenerManager:54   assigned class org.matsim.core.mobsim.framework.listeners.MobsimListener to interface org.matsim.vis.snapshotwriters.SnapshotWriterManager
2024-05-13T07:47:21,063  INFO MobsimListenerManager:54   assigned class org.matsim.core.mobsim.framework.listeners.MobsimListener to interface org.matsim.core.mobsim.framework.listeners.MobsimListener
2024-05-13T07:47:21,063  INFO MobsimListenerManager:54   assigned class org.matsim.core.mobsim.framework.listeners.MobsimListener to interface org.matsim.core.mobsim.framework.listeners.MobsimAfterSimStepListener
2024-05-13T07:47:22,165  INFO QSimProvider:131 Added MobsimEngine class org.matsim.core.mobsim.qsim.ActivityEngineDefaultImpl
2024-05-13T07:47:22,165  INFO QSimProvider:137 Added Activityhandler class org.matsim.core.mobsim.qsim.ActivityEngineDefaultImpl
2024-05-13T07:47:22,165  INFO QSimProvider:143 Added DepartureHandler class org.matsim.core.mobsim.qsim.qnetsimengine.VehicularDepartureHandler
2024-05-13T07:47:22,165  INFO QSimProvider:131 Added MobsimEngine class org.matsim.core.mobsim.qsim.qnetsimengine.QNetsimEngineWithThreadpool
2024-05-13T07:47:22,165  INFO QSimProvider:131 Added MobsimEngine class org.matsim.core.mobsim.qsim.DefaultTeleportationEngine
2024-05-13T07:47:22,165  INFO QSimProvider:143 Added DepartureHandler class org.matsim.core.mobsim.qsim.DefaultTeleportationEngine
2024-05-13T07:47:22,165  INFO QSimProvider:149 Added AgentSource class org.matsim.core.mobsim.qsim.agents.PopulationAgentSource
2024-05-13T07:47:22,166  INFO MobsimListenerManager:50 calling addQueueSimulationListener
2024-05-13T07:47:22,166  INFO MobsimListenerManager:54   assigned class org.matsim.core.mobsim.framework.listeners.MobsimListener to interface org.matsim.core.mobsim.framework.listeners.MobsimBeforeSimStepListener
2024-05-13T07:47:22,166  INFO MobsimListenerManager:54   assigned class org.matsim.core.mobsim.framework.listeners.MobsimListener to interface org.matsim.core.mobsim.qsim.messagequeueengine.MessageQueueEngine
2024-05-13T07:47:22,166  INFO MobsimListenerManager:54   assigned class org.matsim.core.mobsim.framework.listeners.MobsimListener to interface org.matsim.core.mobsim.framework.listeners.MobsimListener
2024-05-13T07:47:22,166  INFO QSimProvider:155 Added MobsimListener class org.matsim.core.mobsim.qsim.messagequeueengine.MessageQueueEngine
2024-05-13T07:47:22,176  INFO PopulationUtils:1202 adding scenario element for allpersons container
2024-05-13T07:47:22,176  INFO PopulationImpl:107  person # 1
2024-05-13T07:47:22,176  INFO PopulationImpl:107  person # 4
2024-05-13T07:47:22,176  INFO PopulationImpl:107  person # 16
2024-05-13T07:47:22,177  INFO PopulationImpl:107  person # 64
2024-05-13T07:47:22,181  INFO PopulationImpl:107  person # 256
2024-05-13T07:47:22,185  INFO PopulationImpl:107  person # 1024
2024-05-13T07:47:22,193  INFO PopulationImpl:107  person # 4096
2024-05-13T07:47:22,216  INFO PopulationImpl:107  person # 16384
2024-05-13T07:47:22,236  INFO VehicleUtils:328 adding scenario element for allvehicles container
2024-05-13T07:47:22,236  INFO Counter:70 [VehiclesImpl] added vehicle # 1
2024-05-13T07:47:22,236  INFO Counter:70 [VehiclesImpl] added vehicle # 2
2024-05-13T07:47:22,237  INFO Counter:70 [VehiclesImpl] added vehicle # 4
2024-05-13T07:47:22,237  INFO Counter:70 [VehiclesImpl] added vehicle # 8
2024-05-13T07:47:22,237  INFO Counter:70 [VehiclesImpl] added vehicle # 16
2024-05-13T07:47:22,237  INFO Counter:70 [VehiclesImpl] added vehicle # 32
2024-05-13T07:47:22,238  INFO Counter:70 [VehiclesImpl] added vehicle # 64
2024-05-13T07:47:22,239  INFO Counter:70 [VehiclesImpl] added vehicle # 128
2024-05-13T07:47:22,240  INFO Counter:70 [VehiclesImpl] added vehicle # 256
2024-05-13T07:47:22,241  INFO Counter:70 [VehiclesImpl] added vehicle # 512
2024-05-13T07:47:22,244  INFO Counter:70 [VehiclesImpl] added vehicle # 1024
2024-05-13T07:47:22,246  INFO Counter:70 [VehiclesImpl] added vehicle # 2048
2024-05-13T07:47:22,255  INFO Counter:70 [VehiclesImpl] added vehicle # 4096
2024-05-13T07:47:22,267  INFO Counter:70 [VehiclesImpl] added vehicle # 8192
2024-05-13T07:47:22,290  INFO Counter:70 [VehiclesImpl] added vehicle # 16384
2024-05-13T07:47:22,529  INFO AbstractQNetsimEngine:428 Assigned 106802 nodes and 242617 links to QSimEngineRunner #0
2024-05-13T07:47:22,601  INFO EventsManagerImpl:115  event # 1
2024-05-13T07:47:22,616  INFO EventsManagerImpl:115  event # 4
2024-05-13T07:47:22,617  INFO EventsManagerImpl:115  event # 16
2024-05-13T07:47:22,620  INFO EventsManagerImpl:115  event # 64
2024-05-13T07:47:22,631  INFO EventsManagerImpl:115  event # 256
2024-05-13T07:47:22,654  INFO EventsManagerImpl:115  event # 1024
2024-05-13T07:47:22,702  INFO EventsManagerImpl:115  event # 4096
2024-05-13T07:47:22,849  INFO EventsManagerImpl:115  event # 16384
2024-05-13T07:47:23,765  INFO EventsManagerImpl:115  event # 65536
2024-05-13T07:47:23,807  INFO AbstractQNetsimEngine:366 SIMULATION (QNetsimEngine) AT 08:00:00 : #links=0 #nodes=0
2024-05-13T07:47:23,821  INFO QSim:566 SIMULATION (NEW QSim) AT 08:00:00 : #Veh=24860 lost=0 simT=0.0s realT=2s; (s/r): 0.0
2024-05-13T07:47:25,381  INFO AbstractQNetsimEngine:366 SIMULATION (QNetsimEngine) AT 09:00:00 : #links=0 #nodes=0
2024-05-13T07:47:25,382  INFO QSim:566 SIMULATION (NEW QSim) AT 09:00:00 : #Veh=24860 lost=0 simT=3600.0s realT=4s; (s/r): 900.0
2024-05-13T07:47:25,835  INFO AbstractQNetsimEngine:366 SIMULATION (QNetsimEngine) AT 10:00:00 : #links=0 #nodes=0
2024-05-13T07:47:25,835  INFO QSim:566 SIMULATION (NEW QSim) AT 10:00:00 : #Veh=24860 lost=0 simT=7200.0s realT=4s; (s/r): 1800.0
2024-05-13T07:47:26,276  INFO AbstractQNetsimEngine:366 SIMULATION (QNetsimEngine) AT 11:00:00 : #links=0 #nodes=0
2024-05-13T07:47:26,276  INFO QSim:566 SIMULATION (NEW QSim) AT 11:00:00 : #Veh=24860 lost=0 simT=10800.0s realT=5s; (s/r): 2160.0
2024-05-13T07:47:26,800  INFO AbstractQNetsimEngine:366 SIMULATION (QNetsimEngine) AT 12:00:00 : #links=0 #nodes=0
2024-05-13T07:47:26,800  INFO QSim:566 SIMULATION (NEW QSim) AT 12:00:00 : #Veh=24860 lost=0 simT=14400.0s realT=5s; (s/r): 2880.0
2024-05-13T07:47:27,370  INFO AbstractQNetsimEngine:366 SIMULATION (QNetsimEngine) AT 13:00:00 : #links=0 #nodes=0
2024-05-13T07:47:27,370  INFO QSim:566 SIMULATION (NEW QSim) AT 13:00:00 : #Veh=24860 lost=0 simT=18000.0s realT=6s; (s/r): 3000.0
2024-05-13T07:47:27,882  INFO AbstractQNetsimEngine:366 SIMULATION (QNetsimEngine) AT 14:00:00 : #links=0 #nodes=0
2024-05-13T07:47:27,882  INFO QSim:566 SIMULATION (NEW QSim) AT 14:00:00 : #Veh=24860 lost=0 simT=21600.0s realT=6s; (s/r): 3600.0
2024-05-13T07:47:28,383  INFO AbstractQNetsimEngine:366 SIMULATION (QNetsimEngine) AT 15:00:00 : #links=0 #nodes=0
2024-05-13T07:47:28,383  INFO QSim:566 SIMULATION (NEW QSim) AT 15:00:00 : #Veh=24860 lost=0 simT=25200.0s realT=7s; (s/r): 3600.0
2024-05-13T07:47:28,909  INFO AbstractQNetsimEngine:366 SIMULATION (QNetsimEngine) AT 16:00:00 : #links=0 #nodes=0
2024-05-13T07:47:28,909  INFO QSim:566 SIMULATION (NEW QSim) AT 16:00:00 : #Veh=24860 lost=0 simT=28800.0s realT=7s; (s/r): 4114.285714285715
2024-05-13T07:47:29,390  INFO AbstractQNetsimEngine:366 SIMULATION (QNetsimEngine) AT 17:00:00 : #links=0 #nodes=0
2024-05-13T07:47:29,390  INFO QSim:566 SIMULATION (NEW QSim) AT 17:00:00 : #Veh=24860 lost=0 simT=32400.0s realT=8s; (s/r): 4050.0
2024-05-13T07:47:30,348  INFO EventsManagerImpl:115  event # 262144
2024-05-13T07:47:31,668  INFO AbstractController$9:235 ### ITERATION 0 fires after mobsim event
2024-05-13T07:47:31,668  INFO ControlerListenerManagerImpl:249 calling notifyAfterMobsim on org.matsim.analysis.LegTimesControlerListener
2024-05-13T07:47:31,674  INFO Gbl:192 Thread performance: Thread=class org.matsim.core.events.SimStepParallelEventsManagerImpl$ProcessEventsRunnable0  cpu-time=1.453125sec
2024-05-13T07:47:31,681  INFO LegTimesControlerListener:51 [0] average trip (probably: leg) duration is: 0 seconds = 00:00:00
2024-05-13T07:47:31,681  INFO ControlerListenerManagerImpl:249 calling notifyAfterMobsim on org.matsim.core.events.MobsimScopeEventHandling
2024-05-13T07:47:31,687  INFO ControlerListenerManagerImpl:249 calling notifyAfterMobsim on org.matsim.core.scoring.EventsToActivities$1
2024-05-13T07:47:31,727  INFO ControlerListenerManagerImpl:252 [it.0] all ControlerAfterMobsimListeners called.
2024-05-13T07:47:31,729  INFO AbstractController$4:160 ### ITERATION 0 fires scoring event
2024-05-13T07:47:31,729  INFO ControlerListenerManagerImpl:184 calling notifyScoring on org.matsim.core.scoring.PlansScoringImpl
2024-05-13T07:47:31,766  INFO NewScoreAssignerImpl:58 it: 0 msaStart: null
2024-05-13T07:47:31,790  INFO ControlerListenerManagerImpl:195 [it.0] all ControlerScoringListeners called.
2024-05-13T07:47:31,792  INFO AbstractController$5:168 ### ITERATION 0 fires iteration end event
2024-05-13T07:47:31,793  INFO ControlerListenerManagerImpl:161 calling notifyIterationEnds on org.matsim.core.controler.corelisteners.EventsHandlingImpl
2024-05-13T07:47:31,794  INFO EventsManagerImpl:159 removing Event-Handler: org.matsim.core.events.algorithms.EventWriterXML
2024-05-13T07:47:31,794  INFO EventsManagerImpl:159 removing Event-Handler: org.matsim.core.events.algorithms.EventWriterXML
2024-05-13T07:47:31,795  INFO ControlerListenerManagerImpl:161 calling notifyIterationEnds on org.matsim.core.scoring.PlansScoringImpl
2024-05-13T07:47:31,810  INFO ControlerListenerManagerImpl:168 calling notifyIterationEnds on org.matsim.counts.CountsControlerListener
2024-05-13T07:47:31,810  INFO ControlerListenerManagerImpl:168 calling notifyIterationEnds on org.matsim.analysis.ModeStatsControlerListener
2024-05-13T07:47:31,866  INFO ModeStatsControlerListener:145 Mode shares over all 49720.0 trips found. MainModeIdentifier: class org.matsim.core.router.RoutingModeMainModeIdentifier
2024-05-13T07:47:31,867  INFO ModeStatsControlerListener:152 -- mode share of mode car = 1.0
2024-05-13T07:47:31,868  INFO ControlerListenerManagerImpl:168 calling notifyIterationEnds on org.matsim.analysis.ScoreStatsControlerListener
2024-05-13T07:47:31,882  INFO ScoreStatsControlerListener:182 -- avg. score of the executed plan of each agent: 141.87423630651094
2024-05-13T07:47:31,882  INFO ScoreStatsControlerListener:183 -- avg. score of the worst plan of each agent: 141.87423630651094
2024-05-13T07:47:31,882  INFO ScoreStatsControlerListener:184 -- avg. of the avg. plan score per agent: 141.87423630651094
2024-05-13T07:47:31,883  INFO ScoreStatsControlerListener:185 -- avg. score of the best plan of each agent: 141.87423630651094
2024-05-13T07:47:31,891  INFO ControlerListenerManagerImpl:168 calling notifyIterationEnds on org.matsim.analysis.IterationTravelStatsControlerListener
2024-05-13T07:47:32,002  INFO TravelDistanceStats:144 -- average leg distance per plan (executed plans only): 0.0 meters
2024-05-13T07:47:32,002  INFO TravelDistanceStats:145 average leg distance per Person (executed plans only): 0.0 meters (statistic on all 49720 legs which have a finite distance)
2024-05-13T07:47:32,002  INFO TravelDistanceStats:146 -- average trip distance per plan (executed plans only): 0.0 meters
2024-05-13T07:47:32,002  INFO TravelDistanceStats:147 average trip distance per Person (executed plans only): 0.0 meters (statistic on all 49720 trips which have a finite distance)
2024-05-13T07:47:32,002  INFO TravelDistanceStats:148 (TravelDistanceStats takes an average over all legs where the simulation reports travelled (network) distances
2024-05-13T07:47:32,002  INFO TravelDistanceStats:149 (and teleported legs whose route contains a distance.)
2024-05-13T07:47:35,648  INFO ControlerListenerManagerImpl:168 calling notifyIterationEnds on org.matsim.analysis.LegHistogramListener
2024-05-13T07:47:35,661  INFO LegHistogramListener:73 number of legs:	49720	100%
2024-05-13T07:47:35,661  INFO LegHistogramListener:80 number of car legs:	49720	100.0%
2024-05-13T07:47:36,050  INFO ControlerListenerManagerImpl:168 calling notifyIterationEnds on org.matsim.analysis.LinkStatsControlerListener
2024-05-13T07:47:36,053  INFO ControlerListenerManagerImpl:172 [it.0] all ControlerIterationEndsListeners called.
2024-05-13T07:47:36,241  INFO AbstractController:182 ### ITERATION 0 ENDS
2024-05-13T07:47:36,241  INFO AbstractController:183 ###################################################
2024-05-13T07:47:36,241  INFO AbstractController:134 ###################################################
2024-05-13T07:47:36,241  INFO AbstractController:135 ### ITERATION 1 BEGINS
2024-05-13T07:47:36,241  INFO ControlerListenerManagerImpl:146 calling notifyIterationStarts on org.matsim.analysis.LegHistogramListener
2024-05-13T07:47:36,241  INFO ControlerListenerManagerImpl:146 calling notifyIterationStarts on org.matsim.analysis.LinkStatsControlerListener
2024-05-13T07:47:36,241  INFO ControlerListenerManagerImpl:146 calling notifyIterationStarts on org.matsim.core.replanning.ReplanningContextImpl
2024-05-13T07:47:36,241  INFO ControlerListenerManagerImpl:146 calling notifyIterationStarts on org.matsim.core.scoring.ScoringFunctionsForPopulation$$Lambda$238/0x0000000801335e38
2024-05-13T07:47:36,301  INFO ControlerListenerManagerImpl:146 calling notifyIterationStarts on org.matsim.core.scoring.ExperiencedPlansServiceImpl$1
2024-05-13T07:47:36,312  INFO ControlerListenerManagerImpl:149 [it.1] all ControlerIterationStartsListeners called.
2024-05-13T07:47:36,317  INFO ControlerListenerManagerImpl:206 calling notifyReplanning on org.matsim.core.controler.corelisteners.PlansReplanningImpl
2024-05-13T07:47:36,319  WARN ExpBetaPlanChanger:102 Would make sense to revise this once more.  See comments in code.  kai, nov08
2024-05-13T07:47:36,368  INFO GenericPlanStrategyImpl:127 Plan-Strategy finished, 24860 plans handled. Strategy: ExpBetaPlanChanger
2024-05-13T07:47:36,368  INFO ControlerListenerManagerImpl:214 [it.1] all ControlerReplanningListeners called.
2024-05-13T07:47:36,368  INFO ControlerListenerManagerImpl:225 calling notifyBeforeMobsim on org.matsim.core.controler.corelisteners.EventsHandlingImpl
2024-05-13T07:47:36,368  INFO EventsManagerImpl:168 resetting Event-Handlers
2024-05-13T07:47:36,368  INFO EventsManagerImpl:175   org.matsim.core.trafficmonitoring.TravelTimeCalculator
2024-05-13T07:47:36,370  INFO EventsManagerImpl:175   org.matsim.analysis.VolumesAnalyzer
2024-05-13T07:47:36,370  INFO EventsManagerImpl:175   org.matsim.core.scoring.ScoringFunctionsForPopulation
2024-05-13T07:47:36,370  INFO EventsManagerImpl:175   org.matsim.analysis.LegHistogram
2024-05-13T07:47:36,370  INFO EventsManagerImpl:175   org.matsim.analysis.CalcLegTimes
2024-05-13T07:47:36,370  INFO ControlerListenerManagerImpl:225 calling notifyBeforeMobsim on org.matsim.core.controler.corelisteners.PlansDumpingImpl
2024-05-13T07:47:36,370  INFO PlansDumpingImpl:77 dumping plans...
2024-05-13T07:47:36,395  INFO Counter:70 [PopulationWriter] dumped person # 1
2024-05-13T07:47:36,395  INFO Counter:70 [PopulationWriter] dumped person # 2
2024-05-13T07:47:36,395  INFO Counter:70 [PopulationWriter] dumped person # 4
2024-05-13T07:47:36,398  INFO Counter:70 [PopulationWriter] dumped person # 8
2024-05-13T07:47:36,398  INFO Counter:70 [PopulationWriter] dumped person # 16
2024-05-13T07:47:36,398  INFO Counter:70 [PopulationWriter] dumped person # 32
2024-05-13T07:47:36,398  INFO Counter:70 [PopulationWriter] dumped person # 64
2024-05-13T07:47:36,405  INFO Counter:70 [PopulationWriter] dumped person # 128
2024-05-13T07:47:36,413  INFO Counter:70 [PopulationWriter] dumped person # 256
2024-05-13T07:47:36,428  INFO Counter:70 [PopulationWriter] dumped person # 512
2024-05-13T07:47:36,462  INFO Counter:70 [PopulationWriter] dumped person # 1024
2024-05-13T07:47:36,505  INFO Counter:70 [PopulationWriter] dumped person # 2048
2024-05-13T07:47:36,597  INFO Counter:70 [PopulationWriter] dumped person # 4096
2024-05-13T07:47:36,748  INFO Counter:70 [PopulationWriter] dumped person # 8192
2024-05-13T07:47:37,220  INFO Counter:70 [PopulationWriter] dumped person # 16384
2024-05-13T07:47:37,541  INFO PopulationWriter:145 Population written to: ./output/ITERS/it.1/1.plans.xml.gz
2024-05-13T07:47:37,542  INFO Counter:75 [PopulationWriter] dumped person # 24860
2024-05-13T07:47:37,542  INFO PlansDumpingImpl:94 finished plans dump.
2024-05-13T07:47:37,543  INFO ControlerListenerManagerImpl:230 calling notifyBeforeMobsim on org.matsim.core.population.VspPlansCleaner
2024-05-13T07:47:37,572  INFO ControlerListenerManagerImpl:233 [it.1] all ControlerBeforeMobsimListeners called.
2024-05-13T07:47:37,596  INFO RandomizingTimeDistanceTravelDisutilityFactory:86  sigma: 3.0; resulting normalization: 0.011108996538242306
2024-05-13T07:47:37,606  INFO RandomizingTimeDistanceTravelDisutilityFactory:86  sigma: 3.0; resulting normalization: 0.011108996538242306
2024-05-13T07:47:37,623  INFO Counter:70 [PersonPrepareForSim] handled person # 1
2024-05-13T07:47:37,623  INFO Counter:70 [PersonPrepareForSim] handled person # 2
2024-05-13T07:47:37,624  INFO Counter:70 [PersonPrepareForSim] handled person # 4
2024-05-13T07:47:37,624  INFO Counter:70 [PersonPrepareForSim] handled person # 8
2024-05-13T07:47:37,624  INFO Counter:70 [PersonPrepareForSim] handled person # 16
2024-05-13T07:47:37,624  INFO Counter:70 [PersonPrepareForSim] handled person # 32
2024-05-13T07:47:37,624  INFO Counter:70 [PersonPrepareForSim] handled person # 64
2024-05-13T07:47:37,624  INFO Counter:70 [PersonPrepareForSim] handled person # 128
2024-05-13T07:47:37,624  INFO Counter:70 [PersonPrepareForSim] handled person # 256
2024-05-13T07:47:37,624  INFO Counter:70 [PersonPrepareForSim] handled person # 512
2024-05-13T07:47:37,624  INFO Counter:70 [PersonPrepareForSim] handled person # 1024
2024-05-13T07:47:37,625  INFO Counter:70 [PersonPrepareForSim] handled person # 2048
2024-05-13T07:47:37,627  INFO Counter:70 [PersonPrepareForSim] handled person # 4096
2024-05-13T07:47:37,631  INFO Counter:70 [PersonPrepareForSim] handled person # 8192
2024-05-13T07:47:37,632  INFO Counter:70 [PersonPrepareForSim] handled person # 16384
2024-05-13T07:47:37,645  INFO Counter:75 [PersonPrepareForSim] handled person # 24860
2024-05-13T07:47:37,682  INFO MobsimListenerManager:50 calling addQueueSimulationListener
2024-05-13T07:47:37,682  INFO MobsimListenerManager:54   assigned class org.matsim.core.mobsim.framework.listeners.MobsimListener to interface org.matsim.core.mobsim.framework.listeners.MobsimBeforeCleanupListener
2024-05-13T07:47:37,682  INFO MobsimListenerManager:54   assigned class org.matsim.core.mobsim.framework.listeners.MobsimListener to interface org.matsim.core.mobsim.framework.listeners.MobsimInitializedListener
2024-05-13T07:47:37,682  INFO MobsimListenerManager:54   assigned class org.matsim.core.mobsim.framework.listeners.MobsimListener to interface org.matsim.vis.snapshotwriters.SnapshotWriterManager
2024-05-13T07:47:37,682  INFO MobsimListenerManager:54   assigned class org.matsim.core.mobsim.framework.listeners.MobsimListener to interface org.matsim.core.mobsim.framework.listeners.MobsimListener
2024-05-13T07:47:37,682  INFO MobsimListenerManager:54   assigned class org.matsim.core.mobsim.framework.listeners.MobsimListener to interface org.matsim.core.mobsim.framework.listeners.MobsimAfterSimStepListener
[...]
2024-05-13T07:48:07,154  INFO Counter:70 [PopulationWriter] dumped person # 32
2024-05-13T07:48:07,155  INFO Counter:70 [PopulationWriter] dumped person # 64
2024-05-13T07:48:07,158  INFO Counter:70 [PopulationWriter] dumped person # 128
2024-05-13T07:48:07,165  INFO Counter:70 [PopulationWriter] dumped person # 256
2024-05-13T07:48:07,177  INFO Counter:70 [PopulationWriter] dumped person # 512
2024-05-13T07:48:07,193  INFO Counter:70 [PopulationWriter] dumped person # 1024
2024-05-13T07:48:07,223  INFO Counter:70 [PopulationWriter] dumped person # 2048
2024-05-13T07:48:07,298  INFO Counter:70 [PopulationWriter] dumped person # 4096
2024-05-13T07:48:07,419  INFO Counter:70 [PopulationWriter] dumped person # 8192
2024-05-13T07:48:07,799  INFO Counter:70 [PopulationWriter] dumped person # 16384
2024-05-13T07:48:08,141  INFO PopulationWriter:145 Population written to: ./output/ITERS/it.5/5.plans.xml.gz
2024-05-13T07:48:08,142  INFO Counter:75 [PopulationWriter] dumped person # 24860
2024-05-13T07:48:08,142  INFO PlansDumpingImpl:94 finished plans dump.
2024-05-13T07:48:08,142  INFO ControlerListenerManagerImpl:230 calling notifyBeforeMobsim on org.matsim.core.population.VspPlansCleaner
2024-05-13T07:48:08,155  INFO ControlerListenerManagerImpl:233 [it.5] all ControlerBeforeMobsimListeners called.
2024-05-13T07:48:08,206  INFO Counter:70 [PersonPrepareForSim] handled person # 2
2024-05-13T07:48:08,206  INFO Counter:70 [PersonPrepareForSim] handled person # 1
2024-05-13T07:48:08,207  INFO Counter:70 [PersonPrepareForSim] handled person # 4
2024-05-13T07:48:08,207  INFO Counter:70 [PersonPrepareForSim] handled person # 8
2024-05-13T07:48:08,207  INFO Counter:70 [PersonPrepareForSim] handled person # 16
2024-05-13T07:48:08,207  INFO Counter:70 [PersonPrepareForSim] handled person # 32
2024-05-13T07:48:08,207  INFO Counter:70 [PersonPrepareForSim] handled person # 64
2024-05-13T07:48:08,207  INFO Counter:70 [PersonPrepareForSim] handled person # 128
2024-05-13T07:48:08,207  INFO Counter:70 [PersonPrepareForSim] handled person # 256
2024-05-13T07:48:08,207  INFO Counter:70 [PersonPrepareForSim] handled person # 512
2024-05-13T07:48:08,209  INFO Counter:70 [PersonPrepareForSim] handled person # 1024
2024-05-13T07:48:08,209  INFO Counter:70 [PersonPrepareForSim] handled person # 2048
2024-05-13T07:48:08,211  INFO Counter:70 [PersonPrepareForSim] handled person # 4096
2024-05-13T07:48:08,214  INFO Counter:70 [PersonPrepareForSim] handled person # 8192
2024-05-13T07:48:08,220  INFO Counter:70 [PersonPrepareForSim] handled person # 16384
2024-05-13T07:48:08,227  INFO Counter:75 [PersonPrepareForSim] handled person # 24860
2024-05-13T07:48:08,244  INFO MobsimListenerManager:50 calling addQueueSimulationListener
2024-05-13T07:48:08,244  INFO MobsimListenerManager:54   assigned class org.matsim.core.mobsim.framework.listeners.MobsimListener to interface org.matsim.core.mobsim.framework.listeners.MobsimBeforeCleanupListener
2024-05-13T07:48:08,244  INFO MobsimListenerManager:54   assigned class org.matsim.core.mobsim.framework.listeners.MobsimListener to interface org.matsim.core.mobsim.framework.listeners.MobsimInitializedListener
2024-05-13T07:48:08,244  INFO MobsimListenerManager:54   assigned class org.matsim.core.mobsim.framework.listeners.MobsimListener to interface org.matsim.vis.snapshotwriters.SnapshotWriterManager
2024-05-13T07:48:08,244  INFO MobsimListenerManager:54   assigned class org.matsim.core.mobsim.framework.listeners.MobsimListener to interface org.matsim.core.mobsim.framework.listeners.MobsimListener
2024-05-13T07:48:08,244  INFO MobsimListenerManager:54   assigned class org.matsim.core.mobsim.framework.listeners.MobsimListener to interface org.matsim.core.mobsim.framework.listeners.MobsimAfterSimStepListener
2024-05-13T07:48:08,586  INFO QSimProvider:131 Added MobsimEngine class org.matsim.core.mobsim.qsim.ActivityEngineDefaultImpl
2024-05-13T07:48:08,586  INFO QSimProvider:137 Added Activityhandler class org.matsim.core.mobsim.qsim.ActivityEngineDefaultImpl
2024-05-13T07:48:08,586  INFO QSimProvider:143 Added DepartureHandler class org.matsim.core.mobsim.qsim.qnetsimengine.VehicularDepartureHandler
2024-05-13T07:48:08,586  INFO QSimProvider:131 Added MobsimEngine class org.matsim.core.mobsim.qsim.qnetsimengine.QNetsimEngineWithThreadpool
2024-05-13T07:48:08,586  INFO QSimProvider:131 Added MobsimEngine class org.matsim.core.mobsim.qsim.DefaultTeleportationEngine
2024-05-13T07:48:08,586  INFO QSimProvider:143 Added DepartureHandler class org.matsim.core.mobsim.qsim.DefaultTeleportationEngine
2024-05-13T07:48:08,587  INFO QSimProvider:149 Added AgentSource class org.matsim.core.mobsim.qsim.agents.PopulationAgentSource
2024-05-13T07:48:08,587  INFO MobsimListenerManager:50 calling addQueueSimulationListener
2024-05-13T07:48:08,587  INFO MobsimListenerManager:54   assigned class org.matsim.core.mobsim.framework.listeners.MobsimListener to interface org.matsim.core.mobsim.framework.listeners.MobsimBeforeSimStepListener
2024-05-13T07:48:08,587  INFO MobsimListenerManager:54   assigned class org.matsim.core.mobsim.framework.listeners.MobsimListener to interface org.matsim.core.mobsim.qsim.messagequeueengine.MessageQueueEngine
2024-05-13T07:48:08,587  INFO MobsimListenerManager:54   assigned class org.matsim.core.mobsim.framework.listeners.MobsimListener to interface org.matsim.core.mobsim.framework.listeners.MobsimListener
2024-05-13T07:48:08,587  INFO QSimProvider:155 Added MobsimListener class org.matsim.core.mobsim.qsim.messagequeueengine.MessageQueueEngine
2024-05-13T07:48:08,859  INFO AbstractQNetsimEngine:428 Assigned 106802 nodes and 242617 links to QSimEngineRunner #0
2024-05-13T07:48:09,144  INFO AbstractQNetsimEngine:366 SIMULATION (QNetsimEngine) AT 08:00:00 : #links=0 #nodes=0
2024-05-13T07:48:09,144  INFO QSim:566 SIMULATION (NEW QSim) AT 08:00:00 : #Veh=24860 lost=0 simT=0.0s realT=0s; (s/r): 0.0
2024-05-13T07:48:09,683  INFO MemoryObserver:42 used RAM: 1204 MB  free: 637 MB  total: 1842 MB
2024-05-13T07:48:10,631  INFO AbstractQNetsimEngine:366 SIMULATION (QNetsimEngine) AT 09:00:00 : #links=0 #nodes=0
2024-05-13T07:48:10,631  INFO QSim:566 SIMULATION (NEW QSim) AT 09:00:00 : #Veh=24860 lost=0 simT=3600.0s realT=2s; (s/r): 1800.0
2024-05-13T07:48:11,082  INFO AbstractQNetsimEngine:366 SIMULATION (QNetsimEngine) AT 10:00:00 : #links=0 #nodes=0
2024-05-13T07:48:11,082  INFO QSim:566 SIMULATION (NEW QSim) AT 10:00:00 : #Veh=24860 lost=0 simT=7200.0s realT=2s; (s/r): 3600.0
2024-05-13T07:48:11,517  INFO AbstractQNetsimEngine:366 SIMULATION (QNetsimEngine) AT 11:00:00 : #links=0 #nodes=0
2024-05-13T07:48:11,517  INFO QSim:566 SIMULATION (NEW QSim) AT 11:00:00 : #Veh=24860 lost=0 simT=10800.0s realT=3s; (s/r): 3600.0
2024-05-13T07:48:11,980  INFO AbstractQNetsimEngine:366 SIMULATION (QNetsimEngine) AT 12:00:00 : #links=0 #nodes=0
2024-05-13T07:48:11,980  INFO QSim:566 SIMULATION (NEW QSim) AT 12:00:00 : #Veh=24860 lost=0 simT=14400.0s realT=3s; (s/r): 4800.0
2024-05-13T07:48:12,440  INFO AbstractQNetsimEngine:366 SIMULATION (QNetsimEngine) AT 13:00:00 : #links=0 #nodes=0
2024-05-13T07:48:12,440  INFO QSim:566 SIMULATION (NEW QSim) AT 13:00:00 : #Veh=24860 lost=0 simT=18000.0s realT=4s; (s/r): 4500.0
2024-05-13T07:48:12,922  INFO AbstractQNetsimEngine:366 SIMULATION (QNetsimEngine) AT 14:00:00 : #links=0 #nodes=0
2024-05-13T07:48:12,922  INFO QSim:566 SIMULATION (NEW QSim) AT 14:00:00 : #Veh=24860 lost=0 simT=21600.0s realT=4s; (s/r): 5400.0
2024-05-13T07:48:13,388  INFO AbstractQNetsimEngine:366 SIMULATION (QNetsimEngine) AT 15:00:00 : #links=0 #nodes=0
2024-05-13T07:48:13,388  INFO QSim:566 SIMULATION (NEW QSim) AT 15:00:00 : #Veh=24860 lost=0 simT=25200.0s realT=5s; (s/r): 5040.0
2024-05-13T07:48:13,868  INFO AbstractQNetsimEngine:366 SIMULATION (QNetsimEngine) AT 16:00:00 : #links=0 #nodes=0
2024-05-13T07:48:13,868  INFO QSim:566 SIMULATION (NEW QSim) AT 16:00:00 : #Veh=24860 lost=0 simT=28800.0s realT=5s; (s/r): 5760.0
2024-05-13T07:48:14,318  INFO AbstractQNetsimEngine:366 SIMULATION (QNetsimEngine) AT 17:00:00 : #links=0 #nodes=0
2024-05-13T07:48:14,319  INFO QSim:566 SIMULATION (NEW QSim) AT 17:00:00 : #Veh=24860 lost=0 simT=32400.0s realT=6s; (s/r): 5400.0
2024-05-13T07:48:16,075  INFO AbstractController$9:235 ### ITERATION 5 fires after mobsim event
2024-05-13T07:48:16,075  INFO ControlerListenerManagerImpl:249 calling notifyAfterMobsim on org.matsim.analysis.LegTimesControlerListener
2024-05-13T07:48:16,075  INFO Gbl:192 Thread performance: Thread=class org.matsim.core.events.SimStepParallelEventsManagerImpl$ProcessEventsRunnable0  cpu-time=1.3125sec
2024-05-13T07:48:16,077  INFO LegTimesControlerListener:51 [5] average trip (probably: leg) duration is: 0 seconds = 00:00:00
2024-05-13T07:48:16,078  INFO ControlerListenerManagerImpl:249 calling notifyAfterMobsim on org.matsim.core.events.MobsimScopeEventHandling
2024-05-13T07:48:16,078  INFO ControlerListenerManagerImpl:249 calling notifyAfterMobsim on org.matsim.core.scoring.EventsToActivities$1
2024-05-13T07:48:16,094  INFO ControlerListenerManagerImpl:252 [it.5] all ControlerAfterMobsimListeners called.
2024-05-13T07:48:16,094  INFO AbstractController$4:160 ### ITERATION 5 fires scoring event
2024-05-13T07:48:16,094  INFO ControlerListenerManagerImpl:184 calling notifyScoring on org.matsim.core.scoring.PlansScoringImpl
2024-05-13T07:48:16,108  INFO NewScoreAssignerImpl:58 it: 5 msaStart: null
2024-05-13T07:48:16,117  INFO ControlerListenerManagerImpl:195 [it.5] all ControlerScoringListeners called.
2024-05-13T07:48:16,118  INFO AbstractController$5:168 ### ITERATION 5 fires iteration end event
2024-05-13T07:48:16,118  INFO ControlerListenerManagerImpl:161 calling notifyIterationEnds on org.matsim.core.controler.corelisteners.EventsHandlingImpl
2024-05-13T07:48:16,120  INFO EventsManagerImpl:159 removing Event-Handler: org.matsim.core.events.algorithms.EventWriterXML
2024-05-13T07:48:16,120  INFO EventsManagerImpl:159 removing Event-Handler: org.matsim.core.events.algorithms.EventWriterXML
2024-05-13T07:48:16,120  INFO ControlerListenerManagerImpl:161 calling notifyIterationEnds on org.matsim.core.scoring.PlansScoringImpl
2024-05-13T07:48:16,129  INFO ControlerListenerManagerImpl:168 calling notifyIterationEnds on org.matsim.counts.CountsControlerListener
2024-05-13T07:48:16,129  INFO ControlerListenerManagerImpl:168 calling notifyIterationEnds on org.matsim.analysis.ModeStatsControlerListener
2024-05-13T07:48:16,154  INFO ModeStatsControlerListener:145 Mode shares over all 49720.0 trips found. MainModeIdentifier: class org.matsim.core.router.RoutingModeMainModeIdentifier
2024-05-13T07:48:16,154  INFO ModeStatsControlerListener:152 -- mode share of mode car = 1.0
2024-05-13T07:48:16,345  INFO ControlerListenerManagerImpl:168 calling notifyIterationEnds on org.matsim.analysis.ScoreStatsControlerListener
2024-05-13T07:48:16,366  INFO ScoreStatsControlerListener:182 -- avg. score of the executed plan of each agent: 141.87423630651094
2024-05-13T07:48:16,366  INFO ScoreStatsControlerListener:183 -- avg. score of the worst plan of each agent: 141.87423630651094
2024-05-13T07:48:16,366  INFO ScoreStatsControlerListener:184 -- avg. of the avg. plan score per agent: 141.87423630651094
2024-05-13T07:48:16,367  INFO ScoreStatsControlerListener:185 -- avg. score of the best plan of each agent: 141.87423630651094
2024-05-13T07:48:16,430  INFO ControlerListenerManagerImpl:168 calling notifyIterationEnds on org.matsim.analysis.IterationTravelStatsControlerListener
2024-05-13T07:48:16,443  INFO TravelDistanceStats:144 -- average leg distance per plan (executed plans only): 0.0 meters
2024-05-13T07:48:16,445  INFO TravelDistanceStats:145 average leg distance per Person (executed plans only): 0.0 meters (statistic on all 49720 legs which have a finite distance)
2024-05-13T07:48:16,445  INFO TravelDistanceStats:146 -- average trip distance per plan (executed plans only): 0.0 meters
2024-05-13T07:48:16,445  INFO TravelDistanceStats:147 average trip distance per Person (executed plans only): 0.0 meters (statistic on all 49720 trips which have a finite distance)
2024-05-13T07:48:16,445  INFO TravelDistanceStats:148 (TravelDistanceStats takes an average over all legs where the simulation reports travelled (network) distances
2024-05-13T07:48:16,445  INFO TravelDistanceStats:149 (and teleported legs whose route contains a distance.)
2024-05-13T07:48:18,187  INFO ControlerListenerManagerImpl:168 calling notifyIterationEnds on org.matsim.analysis.LegHistogramListener
2024-05-13T07:48:18,191  INFO LegHistogramListener:73 number of legs:	49720	100%
2024-05-13T07:48:18,191  INFO LegHistogramListener:80 number of car legs:	49720	100.0%
2024-05-13T07:48:18,333  INFO ControlerListenerManagerImpl:168 calling notifyIterationEnds on org.matsim.analysis.LinkStatsControlerListener
2024-05-13T07:48:18,333  INFO ControlerListenerManagerImpl:172 [it.5] all ControlerIterationEndsListeners called.
2024-05-13T07:48:18,431  INFO AbstractController:182 ### ITERATION 5 ENDS
2024-05-13T07:48:18,431  INFO AbstractController:183 ###################################################
2024-05-13T07:48:18,431  INFO MatsimRuntimeModifications:80 S H U T D O W N   ---   start shutdown.
2024-05-13T07:48:18,432  INFO ControlerListenerManagerImpl:122 calling notifyShutdown on org.matsim.core.controler.corelisteners.EventsHandlingImpl
2024-05-13T07:48:18,432  INFO ControlerListenerManagerImpl:122 calling notifyShutdown on org.matsim.core.controler.corelisteners.DumpDataAtEndImpl
2024-05-13T07:48:18,446  INFO Counter:70 [PopulationWriter] dumped person # 1
2024-05-13T07:48:18,446  INFO Counter:70 [PopulationWriter] dumped person # 2
2024-05-13T07:48:18,446  INFO Counter:70 [PopulationWriter] dumped person # 4
2024-05-13T07:48:18,447  INFO Counter:70 [PopulationWriter] dumped person # 8
2024-05-13T07:48:18,447  INFO Counter:70 [PopulationWriter] dumped person # 16
2024-05-13T07:48:18,448  INFO Counter:70 [PopulationWriter] dumped person # 32
2024-05-13T07:48:18,451  INFO Counter:70 [PopulationWriter] dumped person # 64
2024-05-13T07:48:18,454  INFO Counter:70 [PopulationWriter] dumped person # 128
2024-05-13T07:48:18,460  INFO Counter:70 [PopulationWriter] dumped person # 256
2024-05-13T07:48:18,471  INFO Counter:70 [PopulationWriter] dumped person # 512
2024-05-13T07:48:18,488  INFO Counter:70 [PopulationWriter] dumped person # 1024
2024-05-13T07:48:18,530  INFO Counter:70 [PopulationWriter] dumped person # 2048
2024-05-13T07:48:18,595  INFO Counter:70 [PopulationWriter] dumped person # 4096
2024-05-13T07:48:18,761  INFO Counter:70 [PopulationWriter] dumped person # 8192
2024-05-13T07:48:19,055  INFO Counter:70 [PopulationWriter] dumped person # 16384
2024-05-13T07:48:19,308  INFO PopulationWriter:145 Population written to: ./output/output_plans.xml.gz
2024-05-13T07:48:19,308  INFO Counter:75 [PopulationWriter] dumped person # 24860
2024-05-13T07:48:19,314  INFO NetworkWriter:70 Writing network to file: ./output/output_network.xml.gz...
2024-05-13T07:48:22,588  INFO NetworkWriter:73 done.
2024-05-13T07:48:22,605  INFO Config:602 setting context to [file:/C:/Users/THAO/Desktop/matsim-example-project/]
2024-05-13T07:48:22,609  INFO Config:602 setting context to [file:/C:/Users/THAO/Desktop/matsim-example-project/]
2024-05-13T07:48:22,611  INFO Config:602 setting context to [file:/C:/Users/THAO/Desktop/matsim-example-project/]
2024-05-13T07:48:22,614  INFO Config:602 setting context to [file:/C:/Users/THAO/Desktop/matsim-example-project/]
2024-05-13T07:48:22,616  INFO Config:602 setting context to [file:/C:/Users/THAO/Desktop/matsim-example-project/]
2024-05-13T07:48:22,620  INFO Config:602 setting context to [file:/C:/Users/THAO/Desktop/matsim-example-project/]
2024-05-13T07:48:22,621  INFO Config:602 setting context to [file:/C:/Users/THAO/Desktop/matsim-example-project/]
2024-05-13T07:48:22,622  INFO Config:602 setting context to [file:/C:/Users/THAO/Desktop/matsim-example-project/]
2024-05-13T07:48:22,624  INFO Config:602 setting context to [file:/C:/Users/THAO/Desktop/matsim-example-project/]
2024-05-13T07:48:22,627  INFO Config:602 setting context to [file:/C:/Users/THAO/Desktop/matsim-example-project/]
2024-05-13T07:48:22,628  INFO Config:602 setting context to [file:/C:/Users/THAO/Desktop/matsim-example-project/]
2024-05-13T07:48:22,629  INFO Config:602 setting context to [file:/C:/Users/THAO/Desktop/matsim-example-project/]
2024-05-13T07:48:22,632  INFO Config:602 setting context to [file:/C:/Users/THAO/Desktop/matsim-example-project/]
2024-05-13T07:48:22,633  INFO Config:602 setting context to [file:/C:/Users/THAO/Desktop/matsim-example-project/]
2024-05-13T07:48:22,644  INFO Config:602 setting context to [file:/C:/Users/THAO/Desktop/matsim-example-project/]
2024-05-13T07:48:22,646  INFO Config:602 setting context to [file:/C:/Users/THAO/Desktop/matsim-example-project/]
2024-05-13T07:48:22,647  WARN PlansCalcRouteConfigGroup:378 The first mode routing (= teleported mode) params that are explicitly defined clear the default mode routing (= teleported mode) params.  If you want to avoid this 
2024-05-13T07:48:22,648  WARN PlansCalcRouteConfigGroup:379     warning, use clearTeleportedModeParams(true) in code, and "clearDefaultTeleportedModeParams"=true in xml config.
2024-05-13T07:48:22,648  INFO Config:602 setting context to [file:/C:/Users/THAO/Desktop/matsim-example-project/]
2024-05-13T07:48:22,651  INFO Config:602 setting context to [file:/C:/Users/THAO/Desktop/matsim-example-project/]
2024-05-13T07:48:22,654  INFO Config:602 setting context to [file:/C:/Users/THAO/Desktop/matsim-example-project/]
2024-05-13T07:48:22,655  INFO Config:602 setting context to [file:/C:/Users/THAO/Desktop/matsim-example-project/]
2024-05-13T07:48:22,657  INFO Config:602 setting context to [file:/C:/Users/THAO/Desktop/matsim-example-project/]
2024-05-13T07:48:22,658  INFO Config:602 setting context to [file:/C:/Users/THAO/Desktop/matsim-example-project/]
2024-05-13T07:48:22,660  INFO Config:602 setting context to [file:/C:/Users/THAO/Desktop/matsim-example-project/]
2024-05-13T07:48:22,662  INFO Config:602 setting context to [file:/C:/Users/THAO/Desktop/matsim-example-project/]
2024-05-13T07:48:22,663  INFO Config:602 setting context to [file:/C:/Users/THAO/Desktop/matsim-example-project/]
2024-05-13T07:48:22,666  INFO Config:602 setting context to [file:/C:/Users/THAO/Desktop/matsim-example-project/]
2024-05-13T07:48:22,676  INFO MatsimVehicleWriter:55 about to write vehicles to: ./output/output_vehicles.xml.gz
2024-05-13T07:48:22,676  INFO VehicleWriterV2:64 about to write vehicles to: ./output/output_vehicles.xml.gz
2024-05-13T07:48:22,765  INFO MatsimVehicleWriter:55 about to write vehicles to: ./output/output_allVehicles.xml.gz
2024-05-13T07:48:22,765  INFO VehicleWriterV2:64 about to write vehicles to: ./output/output_allVehicles.xml.gz
2024-05-13T07:48:22,842  INFO HouseholdsWriterV10:67 about to write  households to: ./output/output_households.xml.gz
2024-05-13T07:48:22,844  INFO Counter:75 [HouseholdsWriter] wrote household # 0
2024-05-13T07:48:22,876  INFO ControlerListenerManagerImpl:127 calling notifyShutdown on org.matsim.analysis.ScoreStatsControlerListener
2024-05-13T07:48:22,877  INFO ControlerListenerManagerImpl:127 calling notifyShutdown on org.matsim.analysis.IterationTravelStatsControlerListener
2024-05-13T07:48:22,879  INFO IterationTravelStatsControlerListener:109 Writing all Person and Attributes to personscsv
2024-05-13T07:48:23,115  INFO IterationTravelStatsControlerListener:153 ...done
2024-05-13T07:48:23,115  INFO ControlerListenerManagerImpl:130 all ControlerShutdownListeners called.
2024-05-13T07:48:23,115  INFO MatsimRuntimeModifications:103 S H U T D O W N   ---   shutdown completed.
2024-05-13T07:48:23,116  INFO OutputDirectoryLogging:171 closing the logfile, i.e. messages sent to the logger after this message are not written to the logfile.
